* Generated from 1321 ystatter chencloud1
.model nch_ss_1 nmos (
+ level = 49
+ cjsw = 2.142574e-10
+ drout = 0.0
+ tpbsw = 0.001554306
+ noia = 2e+19
+ noib = 12000.0
+ noic = 2.5e-13
+ cjswg = 3.507574e-10
+ pnfactor = 0.0
+ mjswg = 0.43879
+ wnfactor = 0.0
+ tnom = 25.0
+ alpha0 = 0.0
+ alpha1 = 0.448150714
+ wvoff = -6.32688e-10
+ pscbe1 = 200000030.0
+ pscbe2 = 1e-6
+ toxm = 4.08e-9
+ version = 3.24
+ pbsw = 0.6882682
+ pclm = 0.8000001
+ weta0 = 0
+ wvsat = 0.0
+ nqsmod = 0
+ lnfactor = 4.5192e-8
+ tpbswg = 0.001554306
+ wvth0 = 5.9653440000000004e-9
+ noimod = 2
+ ags = 0.02
+ keta = 0.009263485
+ cit = -0.00010000001
+ a0 = 0.3700794
+ a1 = 0.0
+ a2 = 0.99
+ b0 = 0.0
+ b1 = 0.0
+ dlc = 3e-9
+ dsub = 0.0
+ k3b = 0.0
+ at = 20000.0
+ cf = 0
+ cj = 0.001050279
+ ef = 0.874
+ k1 = 0.5142301
+ k2 = 0.022028564
+ k3 = 0.0
+ em = 30000000.0
+ dwb = 0.0
+ dwg = 0.0
+ js = 3.5e-7
+ ll = 0.0
+ mj = 0.3595262
+ lw = 0.0
+ u0 = 0.04039571
+ pb = 0.6882682
+ w0 = 0.0
+ rd = 0
+ rs = 0
+ dvt0 = 0.0
+ ua = -6.12274e-10
+ dvt1 = 0.0
+ ub = 2.3135539e-18
+ xpart = 1
+ dvt2 = 0.0
+ uc = 1.0876087e-10
+ wl = 0.0
+ wr = 1.0
+ xj = 1.6e-7
+ xl = -1.3989464e-8
+ ww = 0.0
+ xw = -9.94224e-9
+ voff = -0.14328952
+ capmod = 3
+ ldif = 9e-8
+ pbswg = 0.6882682
+ kt1l = 0.0
+ prwb = 0.0
+ prwg = 0.0
+ jsw = 1.45e-12
+ kt1 = -0.2240464
+ lk2 = 3.6153600000000002e-9
+ kt2 = -0.030266136
+ lvoff = -9.038400000000001e-10
+ eta0 = 5e-5
+ llc = -0.039
+ lln = -1
+ pvag = 0.0
+ etab = -5e-5
+ lu0 = -4.5192000000000003e-10
+ vsat = 86384.65
+ beta0 = 11.59263
+ nch = 3.9e+17
+ wint = 3e-9
+ lwl = 0.0
+ lwn = 1.0
+ vth0 = 0.45508482
+ leta0 = 9.680916984722288e-19
+ mobmod = 1
+ nlx = 0.0
+ rdsw = 170.0
+ lint = 1e-8
+ wmax = 0.000900001
+ lvth0 = 2.621136e-9
+ pu0 = 0.0
+ wmin = 1.0009942240000001e-5
+ prt = 0
+ lmax = 2.0001e-5
+ delta = 0.01
+ lmin = 9.993989464000001e-6
+ rsh = 6.8
+ tcj = 0.001040287
+ ua1 = 1.224e-9
+ ub1 = -1.1209314e-18
+ uc1 = 1.1643822e-11
+ dvt0w = 0.0
+ dvt1w = 0.0
+ dvt2w = 0.0
+ tpb = 0.001554306
+ tox = 4.14010536e-9
+ ute = -1.5799998
+ wln = 1.0
+ wu0 = 0.0
+ nfactor = 1.0
+ hdif = 2e-7
+ wwl = 0.0
+ wwn = 1
+ xti = 3
+ mjsw = 0.2003879
+ tcjswg = 0.000645489
+ pdiblc1 = 1e-6
+ pdiblc2 = 0.0006999999
+ pdiblcb = 0.01
+ tcjsw = 0.000645489
+ cdsc = 0.0
+ pvoff = -9.038400000000001e-16
+ cgdo = 3.48175e-10
+ binunit = 2
+ cgso = 3.48175e-10
+ cdscb = 0.0
+ cdscd = 0.0
+ peta0 = 4.148964422023837e-25
+ pvth0 = 2.71152e-15
+ )

.model nch_ss_2 nmos (
+ level = 49
+ wmax = 0.000900001
+ wmin = 1.0009942240000001e-5
+ lkt2 = -4.553491e-12
+ lmax = 9.993989464000001e-6
+ lmin = 1.193989464e-6
+ la0 = -3.496093e-7
+ jsw = 1.45e-12
+ kt1 = -0.2240468
+ lk1 = 1.4908844e-8
+ kt2 = -0.03026568
+ lk2 = -7.49802e-9
+ llc = -0.039
+ lln = -1
+ lketa = -4.320781e-8
+ lu0 = 2.8398890000000003e-9
+ lua = -4.643216e-16
+ lub = 7.375677e-25
+ luc = 3.898355e-17
+ nch = 3.9e+17
+ lwl = 0.0
+ lwn = 1.0
+ xpart = 1
+ pnfactor = 0.0
+ nlx = 0.0
+ hdif = 2e-7
+ wnfactor = 0.0
+ capmod = 3
+ lub1 = 4.527317e-28
+ luc1 = 7.827772e-20
+ nfactor = 1.0
+ pu0 = 0.0
+ mjsw = 0.2003879
+ prt = 0
+ pbswg = 0.6882682
+ lute = -5.743953e-11
+ lvoff = -1.1375168e-8
+ rsh = 6.8
+ tcj = 0.001040287
+ ua1 = 1.224e-9
+ ub1 = -1.1209769e-18
+ uc1 = 1.1635963e-11
+ mobmod = 1
+ beta0 = 11.59263
+ tpb = 0.001554306
+ tox = 4.14010536e-9
+ lnfactor = 4.5192e-8
+ leta0 = 9.680916984722288e-19
+ pdiblc1 = 1e-6
+ pdiblc2 = 0.0003968181
+ cdsc = 0.0
+ pdiblcb = 0.01
+ lpscbe1 = 262.58185
+ ute = -1.5799941
+ lvsat = -0.006562638
+ cgdo = 3.48175e-10
+ wln = 1.0
+ lvth0 = 6.3234006e-8
+ wu0 = 0.0
+ wwl = 0.0
+ wwn = 1
+ cgso = 3.48175e-10
+ xti = 3
+ delta = 0.01
+ lpdiblc2 = 3.0196912e-9
+ binunit = 2
+ dvt0w = 0.0
+ dvt1w = 0.0
+ dvt2w = 0.0
+ cjsw = 2.142574e-10
+ noia = 2e+19
+ noib = 12000.0
+ noic = 2.5e-13
+ tnom = 25.0
+ tcjswg = 0.000645489
+ a0 = 0.4051808
+ a1 = 0.0
+ a2 = 0.99
+ b0 = 0.0
+ b1 = 0.0
+ at = 20000.0
+ cf = 0
+ cj = 0.001050279
+ ef = 0.874
+ k1 = 0.5127332
+ k2 = 0.023144367
+ k3 = 0.0
+ em = 30000000.0
+ toxm = 4.08e-9
+ js = 3.5e-7
+ ll = 0.0
+ mj = 0.3595262
+ lw = 0.0
+ u0 = 0.040065210000000004
+ pb = 0.6882682
+ w0 = 0.0
+ pbsw = 0.6882682
+ rd = 0
+ pclm = 0.7736172
+ rs = 0
+ ua = -5.656554e-10
+ ub = 2.2395009e-18
+ uc = 1.0484686e-10
+ wl = 0.0
+ wr = 1.0
+ xj = 1.6e-7
+ xl = -1.3989464e-8
+ ww = 0.0
+ xw = -9.94224e-9
+ tcjsw = 0.000645489
+ version = 3.24
+ pvoff = -9.038400000000001e-16
+ cdscb = 0.0
+ cdscd = 0.0
+ peta0 = 4.148964422023837e-25
+ pvth0 = 2.71152e-15
+ keta = 0.013601619
+ drout = 0.0
+ tpbsw = 0.001554306
+ dsub = 0.0
+ cjswg = 3.507574e-10
+ alpha0 = 0.0
+ alpha1 = 0.448150714
+ dvt0 = 0.0
+ dvt1 = 0.0
+ dvt2 = 0.0
+ mjswg = 0.43879
+ pscbe1 = 173636400.0
+ pscbe2 = 1e-6
+ lcit = 2.6652053e-10
+ wvoff = -6.32688e-10
+ voff = -0.14223822
+ ldif = 9e-8
+ ags = 0.02
+ kt1l = 0.0
+ prwb = 0.0
+ prwg = 0.0
+ weta0 = 0
+ nqsmod = 0
+ eta0 = 5e-5
+ tpbswg = 0.001554306
+ pvag = 0.0
+ etab = -5e-5
+ cit = -0.00012675911
+ noimod = 2
+ wvsat = 0.0
+ vsat = 87043.55
+ wint = 3e-9
+ dlc = 3e-9
+ lpclm = 2.6277317e-7
+ wvth0 = 5.9653440000000004e-9
+ vth0 = 0.44899922
+ k3b = 0.0
+ rdsw = 170.0
+ dwb = 0.0
+ dwg = 0.0
+ lint = 1e-8
+ )

.model nch_ss_3 nmos (
+ level = 49
+ beta0 = 11.59263
+ leta0 = 3.8114280968091696e-11
+ letab = -3.811428e-11
+ lvsat = -0.0007622857
+ version = 3.24
+ lvth0 = 6.563892999999999e-9
+ delta = 0.01
+ keta = -0.015927497
+ dvt0w = 0.0
+ dvt1w = 0.0
+ dvt2w = 0.0
+ dsub = 0.0
+ pnfactor = 0.0
+ lags = -3.044698e-8
+ dvt0 = 0.0
+ dvt1 = 0.0
+ dvt2 = 0.0
+ tcjswg = 0.000645489
+ wnfactor = 0.0
+ lcit = 3.0262734e-10
+ voff = -0.16483012
+ ldif = 9e-8
+ kt1l = 0.0
+ prwb = 0.0
+ prwg = 0.0
+ eta0 = 1.7142866e-5
+ pvag = 0.0
+ etab = -1.7142866e-5
+ vsat = 82043.24
+ tcjsw = 0.000645489
+ lnfactor = 4.5192e-8
+ wint = 3e-9
+ vth0 = 0.49785271999999997
+ rdsw = 170.0
+ pvoff = -9.038400000000001e-16
+ lint = 1e-8
+ wmax = 0.000900001
+ wmin = 1.0009942240000001e-5
+ cdscb = 0.0
+ cdscd = 0.0
+ lkt1 = 5.782678e-9
+ lkt2 = 1.5570838e-9
+ peta0 = 4.148964422023837e-25
+ lmax = 1.193989464e-6
+ lpdiblc2 = 1.525682e-9
+ lmin = 4.93989464e-7
+ pvth0 = 2.71152e-15
+ ags = 0.0462474
+ drout = 0.0
+ tpbsw = 0.001554306
+ cit = -0.00015788565
+ alpha0 = 0.0
+ alpha1 = 0.448150714
+ dlc = 3e-9
+ cjswg = 3.507574e-10
+ k3b = 0.0
+ pscbe1 = 400000100.0
+ pscbe2 = 1e-6
+ mjswg = 0.43879
+ dwb = 0.0
+ dwg = 0.0
+ hdif = 2e-7
+ lua1 = -3.0446746e-18
+ lub1 = -1.2004175e-24
+ luc1 = -6.517273e-17
+ wvoff = -6.32688e-10
+ mjsw = 0.2003879
+ nqsmod = 0
+ tpbswg = 0.001554306
+ noimod = 2
+ nfactor = 1.0
+ lute = -2.6630502e-7
+ weta0 = 0
+ la0 = 4.581426e-7
+ wvsat = 0.0
+ jsw = 1.45e-12
+ kt1 = -0.2290285
+ lk1 = -7.214246e-9
+ kt2 = -0.031611919
+ lk2 = 5.318511e-9
+ lpclm = 1.5245718e-7
+ wvth0 = 5.9653440000000004e-9
+ a0 = -0.2911571
+ a1 = 0.0
+ a2 = 0.99
+ b0 = 0.0
+ b1 = 0.0
+ llc = -0.039
+ cdsc = 0.0
+ lln = -1
+ lu0 = 5.886878999999999e-10
+ at = 20000.0
+ cf = 0
+ cj = 0.001050279
+ ef = 0.874
+ k1 = 0.5318048
+ k2 = 0.012095633000000001
+ k3 = 0.0
+ em = 30000000.0
+ lua = 7.982966e-17
+ lub = -1.5630905e-25
+ luc = -9.669895e-18
+ nch = 3.9e+17
+ lwl = 0.0
+ lwn = 1.0
+ js = 3.5e-7
+ cgdo = 3.48175e-10
+ ll = 0.0
+ mj = 0.3595262
+ lw = 0.0
+ pdiblc1 = 1e-6
+ pdiblc2 = 0.0016847569
+ u0 = 0.0420059
+ pb = 0.6882682
+ w0 = 0.0
+ rd = 0
+ nlx = 0.0
+ rs = 0
+ pdiblcb = 0.01
+ ua = -1.0347512e-9
+ ub = 3.0100842e-18
+ uc = 1.4678947e-10
+ wl = 0.0
+ wr = 1.0
+ xj = 1.6e-7
+ xl = -1.3989464e-8
+ ww = 0.0
+ xw = -9.94224e-9
+ cgso = 3.48175e-10
+ pu0 = 0.0
+ prt = 0
+ cjsw = 2.142574e-10
+ binunit = 2
+ rsh = 6.8
+ tcj = 0.001040287
+ ua1 = 1.2266247e-9
+ ub1 = -8.574386e-20
+ uc1 = 6.788683e-11
+ lketa = -8.954029e-9
+ noia = 2e+19
+ noib = 12000.0
+ noic = 2.5e-13
+ tpb = 0.001554306
+ tox = 4.14010536e-9
+ capmod = 3
+ xpart = 1
+ ute = -1.3504703
+ tnom = 25.0
+ wln = 1.0
+ wu0 = 0.0
+ pbswg = 0.6882682
+ wwl = 0.0
+ wwn = 1
+ xti = 3
+ toxm = 4.08e-9
+ mobmod = 1
+ lvoff = 1.4831418000000001e-8
+ pbsw = 0.6882682
+ pclm = 0.8687172
+ )

.model nch_ss_4 nmos (
+ level = 49
+ lua1 = 8.039099e-19
+ lub1 = 3.824101e-25
+ luc1 = 2.9606131e-17
+ mjsw = 0.2003879
+ lute = 7.030476e-8
+ ags = -0.019916179
+ tcjsw = 0.000645489
+ nfactor = 1.0
+ cdsc = 0.0
+ cit = 0.000271889
+ pvoff = -9.038400000000001e-16
+ dlc = 3e-9
+ cgdo = 3.48175e-10
+ k3b = 0.0
+ dwb = 0.0
+ dwg = 0.0
+ cdscb = 0.0
+ cdscd = 0.0
+ cgso = 3.48175e-10
+ peta0 = 4.148964422023837e-25
+ pdiblc1 = 1e-6
+ pdiblc2 = -0.00593541
+ pdiblcb = 0.01
+ pvth0 = 2.71152e-15
+ drout = 0.0
+ alpha0 = 0.0
+ cjsw = 2.142574e-10
+ alpha1 = 0.448150714
+ tpbsw = 0.001554306
+ la0 = 7.545271e-8
+ noia = 2e+19
+ noib = 12000.0
+ noic = 2.5e-13
+ pscbe1 = 400000000.0
+ pscbe2 = 1e-6
+ binunit = 2
+ jsw = 1.45e-12
+ kt1 = -0.22715
+ lk1 = 4.899558e-8
+ kt2 = -0.029537767
+ lk2 = -1.9725976e-8
+ cjswg = 3.507574e-10
+ pnfactor = 0.0
+ llc = -0.039
+ lln = -1
+ mjswg = 0.43879
+ lu0 = 7.998789e-10
+ wnfactor = 0.0
+ lua = -1.0530929e-18
+ lub = 5.559478e-27
+ luc = 4.133919e-18
+ nch = 3.9e+17
+ lwl = 0.0
+ lwn = 1.0
+ tnom = 25.0
+ nqsmod = 0
+ tpbswg = 0.001554306
+ wvoff = -6.32688e-10
+ nlx = 0.0
+ noimod = 2
+ toxm = 4.08e-9
+ pu0 = 0.0
+ weta0 = 0
+ pbsw = 0.6882682
+ pclm = 1.1076791
+ prt = 0
+ wvsat = 0.0
+ lnfactor = 4.5192e-8
+ lpclm = 4.253467e-8
+ wvth0 = 5.9653440000000004e-9
+ rsh = 6.8
+ tcj = 0.001040287
+ ua1 = 1.2182583e-9
+ ub1 = -3.526674e-18
+ uc1 = -1.381542e-10
+ tpb = 0.001554306
+ tox = 4.14010536e-9
+ ute = -2.0822308
+ version = 3.24
+ wln = 1.0
+ wu0 = 0.0
+ lpdiblc2 = 5.030957e-9
+ wwl = 0.0
+ wwn = 1
+ xti = 3
+ keta = -0.04182327
+ capmod = 3
+ dsub = 0.0
+ lketa = 2.9580252e-9
+ xpart = 1
+ lags = -1.1735286e-11
+ dvt0 = 0.0
+ dvt1 = 0.0
+ dvt2 = 0.0
+ lcit = 1.0493098e-10
+ voff = -0.12726132
+ pbswg = 0.6882682
+ mobmod = 1
+ ldif = 9e-8
+ kt1l = 0.0
+ prwb = 0.0
+ prwg = 0.0
+ lvoff = -2.4502018000000002e-9
+ eta0 = -0.0002937502
+ pvag = 0.0
+ etab = 0.0013875004
+ beta0 = 11.59263
+ vsat = 80823.6
+ wint = 3e-9
+ leta0 = 1.811250609680917e-10
+ vth0 = 0.49375982
+ letab = -6.842502e-10
+ rdsw = 170.0
+ lvsat = -0.00020125005
+ lint = 1e-8
+ lvth0 = 8.446637e-9
+ wmax = 0.000900001
+ wmin = 1.0009942240000001e-5
+ lkt1 = 4.918561e-9
+ lkt2 = 6.029743e-10
+ delta = 0.01
+ lmax = 4.93989464e-7
+ a0 = 0.5407774
+ a1 = 0.0
+ a2 = 0.99
+ b0 = 0.0
+ b1 = 0.0
+ lmin = 1.8e-7
+ at = 20000.0
+ cf = 0
+ cj = 0.001050279
+ ef = 0.874
+ k1 = 0.4096095
+ k2 = 0.06654018
+ k3 = 0.0
+ em = 30000000.0
+ dvt0w = 0.0
+ dvt1w = 0.0
+ dvt2w = 0.0
+ js = 3.5e-7
+ ll = 0.0
+ mj = 0.3595262
+ lw = 0.0
+ u0 = 0.04154679
+ pb = 0.6882682
+ w0 = 0.0
+ rd = 0
+ rs = 0
+ ua = -8.589192e-10
+ ub = 2.6581962e-18
+ uc = 1.1678118e-10
+ wl = 0.0
+ wr = 1.0
+ xj = 1.6e-7
+ xl = -1.3989464e-8
+ ww = 0.0
+ xw = -9.94224e-9
+ tcjswg = 0.000645489
+ hdif = 2e-7
+ )

.model nch_ss_5 nmos (
+ level = 49
+ pu0 = 0.0
+ pscbe1 = 200000030.0
+ pscbe2 = 1e-6
+ tpbsw = 0.001554306
+ prt = 0
+ dsub = 0.0
+ cjswg = 3.507574e-10
+ rsh = 6.8
+ tcj = 0.001040287
+ ua1 = 1.224e-9
+ ub1 = -1.0684574e-18
+ a0 = 0.3702259
+ a1 = 0.0
+ a2 = 0.99
+ uc1 = 2.4230474e-11
+ b0 = 0.0
+ b1 = 0.0
+ mjswg = 0.43879
+ nqsmod = 0
+ dvt0 = 0.0
+ dvt1 = 0.0
+ dvt2 = 0.0
+ tpbswg = 0.001554306
+ at = 20000.0
+ cf = 0
+ cj = 0.001050279
+ ef = 0.874
+ k1 = 0.5102321
+ k2 = 0.023322214
+ k3 = 0.0
+ tpb = 0.001554306
+ noimod = 2
+ em = 30000000.0
+ tox = 4.14010536e-9
+ js = 3.5e-7
+ wa0 = -1.4643313e-9
+ ll = 0.0
+ mj = 0.3595262
+ lw = 0.0
+ wvoff = 2.5803440000000005e-10
+ u0 = 0.04122822
+ pb = 0.6882682
+ w0 = 0.0
+ rd = 0
+ ute = -1.5803809
+ rs = 0
+ ua = -5.885942e-10
+ ub = 2.3329335e-18
+ uc = 1.1057788e-10
+ voff = -0.14337861999999998
+ wk1 = 3.995606e-8
+ wk2 = -1.2928737e-8
+ wl = 0.0
+ wr = 1.0
+ xj = 1.6e-7
+ xl = -1.3989464e-8
+ ww = 0.0
+ ldif = 9e-8
+ xw = -9.94224e-9
+ wln = 1.0
+ wu0 = -8.320099e-9
+ kt1l = 0.0
+ prwb = 0.0
+ prwg = 0.0
+ puc1 = -1.4905616e-28
+ weta0 = 0
+ wua = -2.3665659e-16
+ wub = -1.936796e-25
+ wuc = -1.815927e-17
+ wwl = 0.0
+ wwn = 1
+ eta0 = 5e-5
+ xti = 3
+ wvsat = 0.0
+ pvag = 0.0
+ etab = -5e-5
+ vsat = 86384.65
+ wvth0 = 6.652955400000001e-9
+ wint = 3e-9
+ vth0 = 0.45501602
+ rdsw = 170.0
+ wkt1 = -8.215166e-9
+ wkt2 = 1.6245854e-9
+ lint = 1e-8
+ wmax = 1.0009942240000001e-5
+ wmin = 1.20994224e-6
+ lmax = 2.0001e-5
+ lmin = 9.993989464000001e-6
+ capmod = 3
+ xpart = 1
+ wub1 = -5.244247e-25
+ pnfactor = 0.0
+ wuc1 = -1.257911e-16
+ wnfactor = 0.0
+ hdif = 2e-7
+ mobmod = 1
+ wute = 3.808433e-9
+ pbswg = 0.6882682
+ mjsw = 0.2003879
+ lvoff = -9.038400000000001e-10
+ beta0 = 11.59263
+ lnfactor = 4.5192e-8
+ leta0 = 9.680916984722288e-19
+ cdsc = 0.0
+ nfactor = 1.0
+ lvth0 = 2.621136e-9
+ cgdo = 3.48175e-10
+ cgso = 3.48175e-10
+ delta = 0.01
+ dvt0w = 0.0
+ pdiblc1 = 1e-6
+ pdiblc2 = 0.0006999999
+ dvt1w = 0.0
+ dvt2w = 0.0
+ pdiblcb = 0.01
+ cjsw = 2.142574e-10
+ tcjswg = 0.000645489
+ ags = 0.02
+ noia = 2e+19
+ noib = 12000.0
+ noic = 2.5e-13
+ cit = -0.00010000001
+ binunit = 2
+ dlc = 3e-9
+ tnom = 25.0
+ k3b = 0.0
+ dwb = 0.0
+ dwg = 0.0
+ toxm = 4.08e-9
+ pbsw = 0.6882682
+ pclm = 0.8000001
+ tcjsw = 0.000645489
+ pvoff = -9.038400000000001e-16
+ jsw = 1.45e-12
+ kt1 = -0.2232244
+ kt2 = -0.030428693
+ lk2 = 3.6153600000000002e-9
+ llc = -0.039
+ lln = -1
+ lu0 = -4.5192000000000003e-10
+ cdscb = 0.0
+ cdscd = 0.0
+ nch = 3.9e+17
+ peta0 = 4.148964422023837e-25
+ lwl = 0.0
+ lwn = 1.0
+ nlx = 0.0
+ alpha0 = 0.0
+ alpha1 = 0.448150714
+ version = 3.24
+ wketa = -1.0935369e-8
+ pvth0 = 2.71152e-15
+ keta = 0.010357677
+ drout = 0.0
+ )

.model nch_ss_6 nmos (
+ level = 49
+ nfactor = 1.0
+ cgso = 3.48175e-10
+ capmod = 3
+ cjsw = 2.142574e-10
+ lketa = -4.518989e-8
+ pdiblc1 = 1e-6
+ pdiblc2 = 0.0003968181
+ noia = 2e+19
+ noib = 12000.0
+ noic = 2.5e-13
+ pdiblcb = 0.01
+ lpscbe1 = 262.58185
+ xpart = 1
+ mobmod = 1
+ tnom = 25.0
+ pbswg = 0.6882682
+ binunit = 2
+ toxm = 4.08e-9
+ lvoff = -1.1709891999999999e-8
+ a0 = 0.40626
+ a1 = 0.0
+ a2 = 0.99
+ b0 = 0.0
+ b1 = 0.0
+ pbsw = 0.6882682
+ pclm = 0.7755287
+ at = 20000.0
+ cf = 0
+ cj = 0.001050279
+ ef = 0.874
+ k1 = 0.508509
+ beta0 = 11.59263
+ k2 = 0.02454095
+ k3 = 0.0
+ em = 30000000.0
+ js = 3.5e-7
+ ll = 0.0
+ leta0 = 9.680916984722288e-19
+ mj = 0.3595262
+ lw = 0.0
+ u0 = 0.04092259
+ pb = 0.6882682
+ w0 = 0.0
+ rd = 0
+ rs = 0
+ ags = 0.02
+ ua = -5.377125e-10
+ ub = 2.2537915e-18
+ uc = 1.0657759e-10
+ lvsat = -0.006753025
+ wl = 0.0
+ wr = 1.0
+ xj = 1.6e-7
+ xl = -1.3989464e-8
+ ww = 0.0
+ xw = -9.94224e-9
+ lvth0 = 6.3327226e-8
+ cit = -0.00012675911
+ ppclm = 1.9027247e-13
+ delta = 0.01
+ dlc = 3e-9
+ k3b = 0.0
+ dwb = 0.0
+ dwg = 0.0
+ tcjswg = 0.000645489
+ dvt0w = 0.0
+ dvt1w = 0.0
+ dvt2w = 0.0
+ pkt1 = 4.710912e-15
+ pkt2 = -4.130377e-15
+ keta = 0.014894814
+ version = 3.24
+ dsub = 0.0
+ pnfactor = 0.0
+ la0 = -3.588995e-7
+ dvt0 = 0.0
+ dvt1 = 0.0
+ dvt2 = 0.0
+ wnfactor = 0.0
+ jsw = 1.45e-12
+ lk1 = 1.7161611e-8
+ kt1 = -0.2231775
+ lk2 = -8.523252e-9
+ kt2 = -0.030469729
+ pketa = 1.9809019e-14
+ llc = -0.039
+ lln = -1
+ lu0 = 2.5921712e-9
+ lcit = 2.6652053e-10
+ voff = -0.14229371999999998
+ lua = -5.067804e-16
+ lub = 7.882536e-25
+ luc = 3.984287e-17
+ nch = 3.9e+17
+ ldif = 9e-8
+ lwl = 0.0
+ lwn = 1.0
+ wpclm = -1.9103656e-8
+ kt1l = 0.0
+ pa0 = 9.284546e-14
+ prwb = 0.0
+ prwg = 0.0
+ pub1 = 4.176128e-31
+ nlx = 0.0
+ puc1 = 7.417578e-23
+ eta0 = 5e-5
+ pk1 = -2.2514154e-14
+ pk2 = 1.0246181e-14
+ pvag = 0.0
+ etab = -5e-5
+ tcjsw = 0.000645489
+ pu0 = 2.4756895e-15
+ vsat = 87062.66
+ lnfactor = 4.5192e-8
+ wint = 3e-9
+ pute = -5.708167e-14
+ prt = 0
+ pua = 4.243342e-22
+ pub = -5.065558e-31
+ puc = -8.588134e-24
+ vth0 = 0.44892112
+ rdsw = 170.0
+ pvoff = 2.441401e-15
+ wkt1 = -8.688151e-9
+ wkt2 = 2.0392819e-9
+ rsh = 6.8
+ lint = 1e-8
+ tcj = 0.001040287
+ ua1 = 1.224e-9
+ ub1 = -1.0643074e-18
+ uc1 = 2.4967807e-11
+ wmax = 1.0009942240000001e-5
+ wmin = 1.20994224e-6
+ cdscb = 0.0
+ cdscd = 0.0
+ tpb = 0.001554306
+ peta0 = 4.148964422023837e-25
+ alpha0 = 0.0
+ alpha1 = 0.448150714
+ tox = 4.14010536e-9
+ lkt1 = -4.674615e-10
+ lkt2 = 4.087321e-10
+ wa0 = -1.0786144e-8
+ lpdiblc2 = 3.0196912e-9
+ lmax = 9.993989464000001e-6
+ pvsat = 1.9027204e-9
+ ute = -1.5809486
+ pscbe1 = 173636400.0
+ pscbe2 = 1e-6
+ wk1 = 4.221652e-8
+ wk2 = -1.3957471e-8
+ lmin = 1.193989464e-6
+ wketa = -1.292423e-8
+ pvth0 = 1.7798325e-15
+ wln = 1.0
+ drout = 0.0
+ wu0 = -8.568663e-9
+ tpbsw = 0.001554306
+ wua = -2.7926046e-16
+ wub = -1.4282058e-25
+ wuc = -1.7297008e-17
+ wwl = 0.0
+ wwn = 1
+ xti = 3
+ nqsmod = 0
+ tpbswg = 0.001554306
+ cjswg = 3.507574e-10
+ noimod = 2
+ wub1 = -5.663537e-25
+ wuc1 = -1.3323848e-16
+ mjswg = 0.43879
+ hdif = 2e-7
+ wvoff = -7.783409999999999e-11
+ lub1 = -4.133362e-26
+ luc1 = -7.343755e-18
+ wute = 9.539526e-9
+ mjsw = 0.2003879
+ weta0 = 0
+ lute = 5.654154e-9
+ wvsat = -0.00019104627
+ lpclm = 2.4373449e-7
+ wvth0 = 6.7464942e-9
+ cdsc = 0.0
+ cgdo = 3.48175e-10
+ )

.model nch_ss_7 nmos (
+ level = 49
+ beta0 = 11.59263
+ pvag = 0.0
+ etab = -1.7142869e-5
+ vsat = 81898.23
+ leta0 = 3.8114280968091696e-11
+ wint = 3e-9
+ pute = 4.357466e-13
+ letab = -3.811428e-11
+ vth0 = 0.49852362
+ lvsat = -0.0007622865
+ rdsw = 170.0
+ lvth0 = 5.788268e-9
+ wkt1 = -3.681822e-9
+ wkt2 = -1.3190541e-9
+ lint = 1e-8
+ wmax = 1.0009942240000001e-5
+ la0 = 4.645035e-7
+ ppclm = 7.258032e-15
+ wmin = 1.20994224e-6
+ jsw = 1.45e-12
+ lk1 = -1.1179709e-8
+ kt1 = -0.2286601
+ lk2 = 7.0464250000000005e-9
+ kt2 = -0.031479932
+ delta = 0.01
+ tcjswg = 0.000645489
+ lkt1 = 5.892387e-9
+ lkt2 = 1.5805686e-9
+ llc = -0.039
+ lln = -1
+ lmax = 1.193989464e-6
+ lu0 = 5.085513000000001e-10
+ lmin = 4.93989464e-7
+ lua = 6.148926e-17
+ lub = -1.2783527e-25
+ luc = -6.505068e-18
+ nch = 3.9e+17
+ dvt0w = 0.0
+ lwl = 0.0
+ lwn = 1.0
+ dvt1w = 0.0
+ dvt2w = 0.0
+ pa0 = -6.357063e-14
+ nlx = 0.0
+ pk1 = 3.963084e-14
+ pk2 = -1.7268767e-14
+ pu0 = 8.008865e-16
+ prt = 0
+ pua = 1.8329395e-22
+ pub = -2.8456703e-31
+ puc = -3.16293e-23
+ wua1 = -3.55913e-18
+ wub1 = -1.6132161e-24
+ wuc1 = -1.8047248e-16
+ hdif = 2e-7
+ rsh = 6.8
+ pketa = 9.843987e-15
+ tcj = 0.001040287
+ ua1 = 1.2269809e-9
+ ub1 = 7.567455e-20
+ lua1 = -3.457781e-18
+ uc1 = 8.594492e-11
+ lub1 = -1.3637128e-24
+ luc1 = -7.807721e-17
+ wute = -4.153124e-7
+ mjsw = 0.2003879
+ tpb = 0.001554306
+ tox = 4.14010536e-9
+ wa0 = 1.2405528e-7
+ wpclm = 1.3866737e-7
+ ute = -1.3089141
+ lute = -3.0990586e-7
+ wk1 = -1.1356744e-8
+ wk2 = 9.762311e-9
+ wln = 1.0
+ tcjsw = 0.000645489
+ wu0 = -7.124867e-9
+ wua = -7.146715e-17
+ wub = -3.341902e-25
+ wuc = 2.5660584e-18
+ wwl = 0.0
+ wwn = 1
+ xti = 3
+ cdsc = 0.0
+ pvoff = -3.917654e-15
+ alpha0 = 0.0
+ alpha1 = 0.448150714
+ cgdo = 3.48175e-10
+ a0 = -0.3035701
+ a1 = 0.0
+ a2 = 0.99
+ b0 = 0.0
+ b1 = 0.0
+ cdscb = 0.0
+ cdscd = 0.0
+ peta0 = 4.148964422023837e-25
+ at = 20000.0
+ cf = 0
+ cj = 0.001050279
+ pscbe1 = 400000100.0
+ pscbe2 = 1e-6
+ ef = 0.874
+ k1 = 0.5329412
+ k2 = 0.011118815
+ k3 = 0.0
+ em = 30000000.0
+ cgso = 3.48175e-10
+ js = 3.5e-7
+ ll = 0.0
+ mj = 0.3595262
+ lw = 0.0
+ u0 = 0.04271881
+ pb = 0.6882682
+ nfactor = 1.0
+ w0 = 0.0
+ rd = 0
+ wketa = -4.333682e-9
+ rs = 0
+ ua = -1.0276002e-9
+ ub = 3.0435232e-18
+ uc = 1.4653272e-10
+ pvth0 = 1.0463117999999999e-14
+ wl = 0.0
+ wr = 1.0
+ xj = 1.6e-7
+ xl = -1.3989464e-8
+ ww = 0.0
+ xw = -9.94224e-9
+ drout = 0.0
+ tpbsw = 0.001554306
+ nqsmod = 0
+ cjsw = 2.142574e-10
+ tpbswg = 0.001554306
+ noimod = 2
+ noia = 2e+19
+ noib = 12000.0
+ noic = 2.5e-13
+ cjswg = 3.507574e-10
+ pnfactor = 0.0
+ mjswg = 0.43879
+ pdiblc1 = 1e-6
+ pdiblc2 = 0.0017737894
+ pdiblcb = 0.01
+ wnfactor = 0.0
+ tnom = 25.0
+ wvoff = 5.40411e-9
+ pags = 4.128623e-14
+ toxm = 4.08e-9
+ weta0 = 0
+ ppdiblc2 = 1.0321563e-15
+ binunit = 2
+ pbsw = 0.6882682
+ pclm = 0.8548421
+ wvsat = 0.0014492224
+ wpdiblc2 = -8.897895e-10
+ lpclm = 1.5173094e-7
+ wvth0 = -7.390919999999996e-10
+ lnfactor = 4.5192e-8
+ capmod = 3
+ lpdiblc2 = 1.4224044e-9
+ pkt1 = -1.0964308e-15
+ pkt2 = -2.3470743e-16
+ keta = -0.01549387
+ lketa = -9.939018e-9
+ mobmod = 1
+ wags = -3.559157e-8
+ dsub = 0.0
+ version = 3.24
+ xpart = 1
+ ags = 0.04980868
+ lags = -3.457808e-8
+ dvt0 = 0.0
+ dvt1 = 0.0
+ dvt2 = 0.0
+ cit = -0.00015788565
+ pbswg = 0.6882682
+ lcit = 3.0262734e-10
+ voff = -0.16543412
+ ldif = 9e-8
+ dlc = 3e-9
+ k3b = 0.0
+ kt1l = 0.0
+ lvoff = 1.5132981999999998e-8
+ pua1 = 4.128591e-24
+ prwb = 0.0
+ prwg = 0.0
+ pub1 = 1.6319734e-30
+ puc1 = 1.2896722e-22
+ dwb = 0.0
+ dwg = 0.0
+ eta0 = 1.7142869e-5
+ )

.model nch_ss_8 nmos (
+ level = 49
+ pketa = -2.7027957e-15
+ tnom = 25.0
+ pdiblc1 = 1e-6
+ pdiblc2 = -0.006119013
+ pdiblcb = 0.01
+ pags = -1.0838496e-14
+ toxm = 4.08e-9
+ wpclm = 6.656068e-8
+ pcit = 1.4220811e-17
+ pbsw = 0.6882682
+ pclm = 1.1010191
+ tcjsw = 0.000645489
+ binunit = 2
+ alpha0 = 0.0
+ alpha1 = 0.448150714
+ pvoff = -1.8792550000000002e-15
+ pscbe1 = 400000000.0
+ pscbe2 = 1e-6
+ cdscb = 0.0
+ cdscd = 0.0
+ peta0 = -1.3821213851035578e-18
+ petab = 1.6959704e-18
+ pvsat = 1.5350395e-12
+ wketa = 2.2941933e-8
+ nqsmod = 0
+ pvth0 = 7.220458e-15
+ tpbswg = 0.001554306
+ drout = 0.0
+ noimod = 2
+ pkt1 = -1.7512235e-15
+ pkt2 = 7.382567e-17
+ keta = -0.04411884
+ tpbsw = 0.001554306
+ wags = 7.772305e-8
+ dsub = 0.0
+ cjswg = 3.507574e-10
+ mjswg = 0.43879
+ lags = 1.0727657e-9
+ wcit = -3.0914837e-11
+ dvt0 = 0.0
+ dvt1 = 0.0
+ dvt2 = 0.0
+ version = 3.24
+ wvoff = 9.728084e-10
+ lcit = 1.0350804e-10
+ voff = -0.12742202
+ ldif = 9e-8
+ weta0 = 3.0046217e-12
+ kt1l = 0.0
+ pua1 = -1.0901051e-24
+ prwb = 0.0
+ prwg = 0.0
+ pub1 = -4.238914e-31
+ puc1 = -2.7204607e-23
+ wetab = -3.686654e-12
+ wvsat = 0.0014459029
+ eta0 = -0.00029405078
+ pvag = 0.0
+ etab = 0.0013878694
+ lpclm = 3.848953e-8
+ wvth0 = 6.3101676e-9
+ vsat = 80678.92
+ wint = 3e-9
+ pute = -1.178615e-13
+ vth0 = 0.49372532
+ rdsw = 170.0
+ capmod = 3
+ wkt1 = -2.2583577e-9
+ wkt2 = -1.9897783e-9
+ lint = 1e-8
+ ags = -0.027693154
+ wmax = 1.0009942240000001e-5
+ wmin = 1.20994224e-6
+ lkt1 = 5.093789e-9
+ lkt2 = 5.955873e-10
+ lmax = 4.93989464e-7
+ cit = 0.00027498236
+ lmin = 1.8e-7
+ dlc = 3e-9
+ mobmod = 1
+ k3b = 0.0
+ dwb = 0.0
+ dwg = 0.0
+ a0 = 0.5262308
+ a1 = 0.0
+ a2 = 0.99
+ lketa = 3.228467e-9
+ b0 = 0.0
+ b1 = 0.0
+ at = 20000.0
+ cf = 0
+ cj = 0.001050279
+ ef = 0.874
+ k1 = 0.4007356
+ k2 = 0.07041932
+ k3 = 0.0
+ em = 30000000.0
+ xpart = 1
+ js = 3.5e-7
+ ll = 0.0
+ pnfactor = 0.0
+ mj = 0.3595262
+ lw = 0.0
+ u0 = 0.04203316
+ wua1 = 7.785862e-18
+ pb = 0.6882682
+ wub1 = 2.8560549e-24
+ w0 = 0.0
+ wuc1 = 1.5903152e-16
+ rd = 0
+ rs = 0
+ ua = -9.017296e-10
+ ub = 2.7527719e-18
+ uc = 1.2291169e-10
+ wnfactor = 0.0
+ wl = 0.0
+ wr = 1.0
+ xj = 1.6e-7
+ xl = -1.3989464e-8
+ ww = 0.0
+ xw = -9.94224e-9
+ hdif = 2e-7
+ lua1 = 9.129858e-19
+ lub1 = 4.248247e-25
+ la0 = 8.279508e-8
+ luc1 = 3.232822e-17
+ pbswg = 0.6882682
+ wute = 7.881835e-7
+ mjsw = 0.2003879
+ jsw = 1.45e-12
+ lk1 = 4.963488e-8
+ kt1 = -0.226924
+ lk2 = -2.0231804000000002e-8
+ kt2 = -0.029338669
+ llc = -0.039
+ lvoff = -2.3526017e-9
+ lln = -1
+ lu0 = 8.239492e-10
+ ppdiblc2 = -2.2121929e-16
+ lute = 8.209799e-8
+ lua = 3.588764e-18
+ lub = 5.910339e-27
+ luc = 4.360599e-18
+ nch = 3.9e+17
+ lwl = 0.0
+ lwn = 1.0
+ wpdiblc2 = 1.8349379e-9
+ beta0 = 11.59263
+ pa0 = -7.337964e-14
+ lnfactor = 4.5192e-8
+ nlx = 0.0
+ leta0 = 1.812633409680917e-10
+ letab = -6.844199e-10
+ pk1 = -6.389182e-15
+ pk2 = 5.055259e-15
+ lvsat = -0.00020140363
+ cdsc = 0.0
+ pu0 = -2.4055863e-16
+ lvth0 = 7.995472e-9
+ prt = 0
+ pua = -4.639069e-23
+ pub = -3.506499e-33
+ puc = -2.2654354e-24
+ cgdo = 3.48175e-10
+ tcjswg = 0.000645489
+ ppclm = 4.042711e-14
+ delta = 0.01
+ cgso = 3.48175e-10
+ rsh = 6.8
+ tcj = 0.001040287
+ lpdiblc2 = 5.053093e-9
+ ua1 = 1.2174792e-9
+ ub1 = -3.81245e-18
+ uc1 = -1.540669e-10
+ tpb = 0.001554306
+ tox = 4.14010536e-9
+ dvt0w = 0.0
+ dvt1w = 0.0
+ dvt2w = 0.0
+ wa0 = 1.4537927e-7
+ nfactor = 1.0
+ ute = -2.1610963
+ cjsw = 2.142574e-10
+ wk1 = 8.868675e-8
+ wk2 = -3.876818e-8
+ wln = 1.0
+ wu0 = -4.860856e-9
+ noia = 2e+19
+ noib = 12000.0
+ noic = 2.5e-13
+ wua = 4.278473e-16
+ wub = -9.451913e-25
+ wuc = -6.126842e-17
+ wwl = 0.0
+ wwn = 1
+ xti = 3
+ )

.model nch_ss_9 nmos (
+ level = 49
+ cjswg = 3.507574e-10
+ mjswg = 0.43879
+ wub1 = -7.675553e-27
+ wuc1 = -1.4706552e-17
+ hdif = 2e-7
+ wvoff = -1.499257e-9
+ ags = 0.02
+ wute = 3.836007e-8
+ mjsw = 0.2003879
+ weta0 = 0
+ cit = -0.00010000004
+ wvsat = 0.0
+ dlc = 3e-9
+ k3b = 0.0
+ wvth0 = 1.7022350000000006e-9
+ dwb = 0.0
+ dwg = 0.0
+ capmod = 3
+ cdsc = 0.0
+ cgdo = 3.48175e-10
+ cgso = 3.48175e-10
+ mobmod = 1
+ jsw = 1.45e-12
+ kt1 = -0.2313184
+ lk2 = 3.6153600000000002e-9
+ kt2 = -0.029076951
+ llc = -0.039
+ lln = -1
+ lu0 = -4.5192000000000003e-10
+ cjsw = 2.142574e-10
+ nch = 3.9e+17
+ lwl = 0.0
+ lwn = 1.0
+ noia = 2e+19
+ noib = 12000.0
+ noic = 2.5e-13
+ nlx = 0.0
+ nfactor = 1.0
+ xpart = 1
+ pu0 = 0.0
+ prt = 0
+ tnom = 25.0
+ pbswg = 0.6882682
+ rsh = 6.8
+ tcj = 0.001040287
+ ua1 = 1.224e-9
+ pdiblc1 = 1e-6
+ toxm = 4.08e-9
+ pdiblc2 = 0.0007000003
+ ub1 = -1.5012456e-18
+ lvoff = -9.038400000000001e-10
+ uc1 = -6.880516e-11
+ pdiblcb = 0.01
+ pbsw = 0.6882682
+ tpb = 0.001554306
+ pclm = 0.8000001
+ tox = 4.14010536e-9
+ beta0 = 11.59263
+ wa0 = 7.667051e-8
+ leta0 = 9.680916984722288e-19
+ ute = -1.6093186
+ wk1 = -2.074723e-8
+ wk2 = 4.920634e-9
+ tcjswg = 0.000645489
+ wln = 1.0
+ wu0 = 1.0362965e-9
+ lvth0 = 2.621136e-9
+ binunit = 2
+ wua = 1.4309126e-16
+ wub = -1.5411778e-25
+ wuc = -1.4141237e-17
+ wwl = 0.0
+ wwn = 1
+ xti = 3
+ delta = 0.01
+ dvt0w = 0.0
+ dvt1w = 0.0
+ dvt2w = 0.0
+ keta = 0.0010152902
+ dsub = 0.0
+ pnfactor = 0.0
+ wnfactor = 0.0
+ dvt0 = 0.0
+ dvt1 = 0.0
+ dvt2 = 0.0
+ a0 = 0.3047864
+ a1 = 0.0
+ a2 = 0.99
+ b0 = 0.0
+ b1 = 0.0
+ voff = -0.14190692
+ version = 3.24
+ at = 20000.0
+ cf = 0
+ cj = 0.001050279
+ ldif = 9e-8
+ ef = 0.874
+ k1 = 0.5610723
+ k2 = 0.0083729917
+ k3 = 0.0
+ em = 30000000.0
+ kt1l = 0.0
+ js = 3.5e-7
+ prwb = 0.0
+ ll = 0.0
+ prwg = 0.0
+ mj = 0.3595262
+ lw = 0.0
+ u0 = 0.03339204
+ pb = 0.6882682
+ w0 = 0.0
+ rd = 0
+ rs = 0
+ ua = -9.066409e-10
+ ub = 2.2997995e-18
+ uc = 1.072127e-10
+ eta0 = 5e-5
+ wl = 0.0
+ tcjsw = 0.000645489
+ wr = 1.0
+ xj = 1.6e-7
+ xl = -1.3989464e-8
+ ww = 0.0
+ alpha0 = 0.0
+ alpha1 = 0.448150714
+ xw = -9.94224e-9
+ pvag = 0.0
+ etab = -5e-5
+ lnfactor = 4.5192e-8
+ vsat = 86384.65
+ wint = 3e-9
+ pscbe1 = 200000030.0
+ pscbe2 = 1e-6
+ vth0 = 0.45916242
+ pvoff = -9.038400000000001e-16
+ rdsw = 170.0
+ wkt1 = 1.4490446e-9
+ wkt2 = 1.0605161e-11
+ lint = 1e-8
+ wmax = 1.20994224e-6
+ cdscb = 0.0
+ cdscd = 0.0
+ peta0 = 4.148964422023837e-25
+ wmin = 5.0994224e-7
+ nqsmod = 0
+ tpbswg = 0.001554306
+ noimod = 2
+ lmax = 2.0001e-5
+ wketa = 2.1944087e-10
+ pvth0 = 2.71152e-15
+ lmin = 9.993989464000001e-6
+ drout = 0.0
+ tpbsw = 0.001554306
+ )

.model nch_ss_10 nmos (
+ level = 49
+ lute = -1.2190513e-8
+ nqsmod = 0
+ tpbswg = 0.001554306
+ noimod = 2
+ cdsc = 0.0
+ cgdo = 3.48175e-10
+ nfactor = 1.0
+ lketa = -2.8027248e-8
+ cgso = 3.48175e-10
+ xpart = 1
+ cjsw = 2.142574e-10
+ pbswg = 0.6882682
+ pdiblc1 = 1e-6
+ pdiblc2 = 0.0003968185
+ noia = 2e+19
+ noib = 12000.0
+ noic = 2.5e-13
+ pdiblcb = 0.01
+ lpscbe1 = 262.58185
+ lvoff = -4.506062e-9
+ capmod = 3
+ beta0 = 11.59263
+ tnom = 25.0
+ leta0 = 9.680916984722288e-19
+ binunit = 2
+ lvsat = -0.006201102
+ toxm = 4.08e-9
+ lvth0 = 6.8541616e-8
+ pcit = 4.302753e-19
+ pbsw = 0.6882682
+ pclm = 0.7699873
+ ppclm = 1.243718e-13
+ mobmod = 1
+ delta = 0.01
+ ags = 0.02
+ dvt0w = 0.0
+ dvt1w = 0.0
+ dvt2w = 0.0
+ cit = -0.00012672294
+ dlc = 3e-9
+ k3b = 0.0
+ dwb = 0.0
+ dwg = 0.0
+ pnfactor = 0.0
+ pkt1 = 7.833639e-15
+ pkt2 = 9.747044e-16
+ keta = 0.00382927
+ wnfactor = 0.0
+ pketa = -6.831802e-16
+ version = 3.24
+ dsub = 0.0
+ wpclm = -1.2487239e-8
+ wcit = -4.317371e-14
+ dvt0 = 0.0
+ dvt1 = 0.0
+ dvt2 = 0.0
+ la0 = -1.9725388e-7
+ tcjsw = 0.000645489
+ jsw = 1.45e-12
+ tcjswg = 0.000645489
+ lk1 = 1.0512358e-8
+ kt1 = -0.2310088
+ lk2 = -1.7946909999999996e-9
+ kt2 = -0.028688708
+ lcit = 2.6616018e-10
+ llc = -0.039
+ lln = -1
+ voff = -0.14154522
+ lu0 = 3.253832e-9
+ lnfactor = 4.5192e-8
+ ldif = 9e-8
+ lua = -1.9124487e-16
+ lub = 4.117038e-25
+ luc = 4.038815e-17
+ nch = 3.9e+17
+ pvoff = -6.159972e-15
+ lwl = 0.0
+ lwn = 1.0
+ kt1l = 0.0
+ prwb = 0.0
+ prwg = 0.0
+ pub1 = -1.8996434e-32
+ puc1 = 1.3569954e-23
+ pa0 = -1.0015934e-13
+ nlx = 0.0
+ eta0 = 5e-5
+ pk1 = -1.457495e-14
+ pk2 = 2.2122807e-15
+ pvag = 0.0
+ cdscb = 0.0
+ cdscd = 0.0
+ etab = -5e-5
+ peta0 = 4.148964422023837e-25
+ vsat = 87007.25
+ wint = 3e-9
+ pu0 = 1.6856667e-15
+ pute = -3.577514e-14
+ pvsat = 1.2437262e-9
+ vth0 = 0.45254382
+ prt = 0
+ pua = 4.758471e-23
+ pub = -5.695533e-32
+ puc = -9.239189e-24
+ lpdiblc2 = 3.0196912e-9
+ wketa = 2.8803285e-10
+ rdsw = 170.0
+ pvth0 = -4.446152000000001e-15
+ wkt1 = 6.625341e-10
+ wkt2 = -8.725676e-11
+ drout = 0.0
+ lint = 1e-8
+ rsh = 6.8
+ tpbsw = 0.001554306
+ wmax = 1.20994224e-6
+ tcj = 0.001040287
+ ua1 = 1.224e-9
+ ub1 = -1.5338095e-18
+ uc1 = -7.316409e-11
+ wmin = 5.0994224e-7
+ lkt1 = -3.0828107e-9
+ lkt2 = -3.866881e-9
+ tpb = 0.001554306
+ tox = 4.14010536e-9
+ cjswg = 3.507574e-10
+ lmax = 9.993989464000001e-6
+ wa0 = 8.672666e-8
+ lmin = 1.193989464e-6
+ ute = -1.6080947
+ mjswg = 0.43879
+ wk1 = -1.9283881e-8
+ wk2 = 4.698517e-9
+ wln = 1.0
+ wu0 = 8.670528e-10
+ wvoff = -9.715325e-10
+ wua = 1.3831368e-16
+ wub = -1.4839938e-25
+ wuc = -1.3213606e-17
+ wwl = 0.0
+ wwn = 1
+ xti = 3
+ a0 = 0.324591
+ a1 = 0.0
+ a2 = 0.99
+ b0 = 0.0
+ b1 = 0.0
+ alpha0 = 0.0
+ alpha1 = 0.448150714
+ wub1 = -5.768295e-27
+ wuc1 = -1.6068998e-17
+ weta0 = 0
+ at = 20000.0