.model nch_ss_1 nmos (
+ level = 54
+ fprout = 300
+ xrcrg1 = 12
+ xrcrg2 = 1
+ ags = 0.9375
+ wtvoff = 0
+ jtsswgd = 2.3e-7
+ jtsswgs = 2.3e-7
+ tvoff = 0.0019109629
+ keta = -0.06
+ cjd = 0.00145199
+ cit = 0.0001
+ cjs = 0.00145199
+ clc = 1e-7
+ cle = 0.6
+ bvd = 8.7
+ bvs = 8.7
+ dlc = 9.8024918e-9
+ xjbvd = 1
+ k3b = 1.9326
+ xjbvs = 1
+ lk2we = -1.5e-12
+ dwb = 0
+ dwc = 0
+ dwg = 0
+ dwj = 0
+ tvfbsdoff = 0.022
+ jswd = 1.28e-13
+ jsws = 1.28e-13
+ lcit = 4e-12
+ capmod = 2
+ la0 = 0
+ kt1l = 0
+ jsd = 6.11e-7
+ jss = 6.11e-7
+ lat = 0.0004
+ kt1 = -0.200226
+ kt2 = -0.05325
+ wku0we = 2e-11
+ wkvth0we = 2e-12
+ llc = 0
+ ku0we = -0.0007
+ lln = 1
+ lu0 = -6e-12
+ mjd = 0.26
+ mjs = 0.26
+ beta0 = 13
+ lud = 0
+ lwc = 0
+ lwl = 0
+ lwn = 1
+ njd = 1.02
+ leta0 = 0
+ njs = 1.02
+ pa0 = 0
+ mobmod = 0
+ nsd = 1e+20
+ pbd = 0.52
+ pat = 6e-11
+ pbs = 0.52
+ lint = 6.5375218e-9
+ trnqsmod = 0
+ pu0 = 0
+ prt = 0
+ pud = 0
+ lkt1 = 0
+ lmax = 2.001e-5
+ lmin = 8.99743e-6
+ rsh = 17.5
+ tcj = 0.00076
+ ua1 = 1.2299687e-9
+ ub1 = -7.2455506e-19
+ uc1 = 3.028e-11
+ dlcig = 2.5e-9
+ tpb = 0.0014
+ lpe0 = 9.2e-8
+ njtsswg = 9
+ bgidl = 2320000000.0
+ lpeb = 2.5e-7
+ wa0 = 0
+ ute = -1.007
+ wat = 0
+ web = 6843.8
+ wec = -25529.0
+ wlc = 0
+ wln = 1
+ wu0 = 2e-11
+ xgl = -1.09e-8
+ xgw = 0
+ wud = 0
+ wwc = 0
+ minv = -0.3
+ wwl = 0
+ wwn = 1
+ xtsswgd = 0.18
+ wvfbsdoff = 0
+ xtsswgs = 0.18
+ lvfbsdoff = 0
+ lub1 = 0
+ ndep = 1e+18
+ ckappad = 0.6
+ ckappas = 0.6
+ pdiblc1 = 0
+ pdiblc2 = 0.018555248
+ lwlc = 0
+ rgatemod = 0
+ dmcgt = 0
+ pdiblcb = -0.3
+ moin = 5.1
+ tcjsw = 0.000357
+ tnjtsswg = 1
+ nigc = 3.083
+ noff = 2.7195
+ noia = 3.11e+42
+ noib = 1.22e+22
+ noic = 45200000.0
+ bigsd = 0.00125
+ bigbacc = 0.002588
+ alpha0 = 2e-10
+ alpha1 = 3.6
+ wvoff = 0
+ ntox = -0.31099999999999994
+ pcit = 0
+ kvth0we = 0.00018
+ pclm = 1.4
+ wvsat = 0
+ wvth0 = 2.6e-9
+ lintnoi = -1.5e-8
+ bigbinv = 0.004953
+ phin = 0.15
+ vtsswgd = 4.2
+ vtsswgs = 4.2
+ pkt1 = 0
+ a0 = 3.25
+ a1 = 0
+ a2 = 1
+ b0 = 0
+ b1 = 0
+ at = 72000
+ cf = 7.5795e-11
+ ef = 1.0
+ k1 = 0.274
+ k2 = 0.026601253999999998
+ k3 = -1.8419
+ em = 1000000.0
+ ll = 0
+ lw = 0
+ u0 = 0.01607
+ w0 = 0
+ ua = -1.8237726e-9
+ ub = 2.103696e-18
+ xpart = 1
+ uc = 7.33e-11
+ ud = 0
+ wl = 0
+ wr = 1
+ xj = 8.6e-8
+ xl = 5.6700000000000005e-9
+ ww = 0
+ xw = 3.4e-9
+ toxref = 3e-9
+ rbdb = 50
+ prwb = 0
+ prwg = 0
+ pub1 = 0
+ egidl = 0.29734
+ rbpb = 50
+ rbpd = 50
+ rbps = 50
+ rbsb = 50
+ pvag = 1.2
+ rdsw = 100
+ ijthsfwd = 0.01
+ ltvoff = 0
+ nfactor = 1
+ rshg = 15.6
+ ijthsrev = 0.01
+ pvoff = -7e-17
+ lku0we = 2.5e-11
+ cdscb = 0
+ cdscd = 0
+ epsrox = 3.9
+ pvsat = 0
+ wk2we = 5e-12
+ pvth0 = 2.3e-16
+ drout = 0.56
+ nigbacc = 10
+ rdsmod = 0
+ igbmod = 1
+ voffl = 0
+ tnom = 25
+ pscbe1 = 1000000000.0
+ pscbe2 = 1e-20
+ toxe = 2.47e-9
+ toxm = 2.43e-9
+ weta0 = 0
+ pbswgd = 0.95
+ pbswgs = 0.95
+ nigbinv = 10
+ igcmod = 1
+ cgidl = 0.22
+ wags = 1e-8
+ wcit = 0
+ voff = -0.1128204
+ fnoimod = 1
+ pbswd = 0.8
+ pbsws = 0.8
+ acde = 0.4
+ pkvth0we = -1.3e-19
+ eigbinv = 1.1
+ vsat = 102860
+ wint = 0
+ vth0 = 0.37711089000000003
+ wkt1 = 1.2e-9
+ pvfbsdoff = 0
+ wmax = 0.00090001
+ aigc = 0.011769394
+ wmin = 9.0026e-6
+ pdits = 0
+ vfbsdoff = 0.02
+ permod = 1
+ cigsd = 0.069865
+ dvt0w = 0
+ dvt1w = 0
+ dvt2w = 0
+ bigc = 0.001442
+ pk2we = -1e-19
+ dvtp0 = 4e-7
+ dvtp1 = 0.01
+ paramchk = 1
+ wwlc = 0
+ cigbacc = 0.32875
+ voffcv = -0.16942
+ wpemod = 1
+ cdsc = 0
+ tnoia = 0
+ tnoimod = 0
+ cgbo = 0
+ cgdl = 3.0874977e-12
+ cgdo = 4.5622265999999996e-11
+ xtid = 3
+ xtis = 3
+ cgsl = 3.0874977e-12
+ cgso = 4.5622265999999996e-11
+ cigc = 0.000625
+ peta0 = 0
+ cigbinv = 0.006
+ tpbsw = 0.0019
+ ijthdfwd = 0.01
+ cjswd = 8.774000000000001e-11
+ cjsws = 8.774000000000001e-11
+ mjswd = 0.11
+ mjsws = 0.11
+ agidl = 9.41e-8
+ version = 4.5
+ tempmod = 0
+ dmcg = 3.1e-8
+ dmci = 3.1e-8
+ dmdg = 0
+ tpbswg = 0.0009
+ ijthdrev = 0.01
+ aigbacc = 0.02
+ k2we = 5e-5
+ dsub = 0.75
+ dtox = 2.7e-10
+ scref = 1e-6
+ ptvoff = 0
+ dvt0 = 3.2
+ dvt1 = 0.5
+ dvt2 = -0.35
+ pigcd = 2.621
+ aigsd = 0.01077322
+ lvoff = 0
+ eta0 = 0.3
+ aigbinv = 0.0163
+ diomod = 1
+ etab = -0.25
+ wtvfbsdoff = 0
+ lvsat = 0.0003
+ pditsd = 0
+ pditsl = 0
+ cjswgd = 3.0174000000000004e-10
+ pku0we = -1.5e-18
+ lvth0 = 0
+ cjswgs = 3.0174000000000004e-10
+ lkvth0we = -2e-12
+ delta = 0.007595625
+ ltvfbsdoff = 0
+ rnoia = 0
+ rnoib = 0
+ mjswgd = 0.85
+ mjswgs = 0.85
+ acnqsmod = 0
+ ngate = 8e+20
+ tcjswg = 0.001
+ ngcon = 1
+ poxedge = 1
+ rbodymod = 0
+ gbmin = 1e-12
+ jswgd = 1.28e-13
+ jswgs = 1.28e-13
+ binunit = 2
+ ptvfbsdoff = 0
+ )

.model nch_ss_2 nmos (
+ level = 54
+ wtvoff = 0
+ cgidl = 0.22
+ ijthdfwd = 0.01
+ capmod = 2
+ pbswd = 0.8
+ pbsws = 0.8
+ wku0we = 2e-11
+ rshg = 15.6
+ cigbacc = 0.32875
+ mobmod = 0
+ pvfbsdoff = 0
+ ijthdrev = 0.01
+ tnoimod = 0
+ pdits = 0
+ lpdiblc2 = -5.8501673e-10
+ cigsd = 0.069865
+ dvt0w = 0
+ dvt1w = 0
+ dvt2w = 0
+ cigbinv = 0.006
+ tnom = 25
+ pk2we = -1e-19
+ dvtp0 = 4e-7
+ dvtp1 = 0.01
+ toxe = 2.47e-9
+ toxm = 2.43e-9
+ version = 4.5
+ tnoia = 0
+ tempmod = 0
+ lkvth0we = -2e-12
+ peta0 = 0
+ tpbsw = 0.0019
+ aigbacc = 0.02
+ wags = 1e-8
+ cjswd = 8.774000000000001e-11
+ cjsws = 8.774000000000001e-11
+ alpha0 = 2e-10
+ alpha1 = 3.6
+ wcit = 0
+ mjswd = 0.11
+ mjsws = 0.11
+ agidl = 9.41e-8
+ acnqsmod = 0
+ voff = -0.11120139
+ acde = 0.4
+ vsat = 102860
+ wint = 0
+ rbodymod = 0
+ aigbinv = 0.0163
+ vth0 = 0.37136703000000004
+ wkt1 = 1.2e-9
+ wmax = 0.00090001
+ aigc = 0.01178613
+ wmin = 9.0026e-6
+ scref = 1e-6
+ pigcd = 2.621
+ toxref = 3e-9
+ aigsd = 0.01077322
+ bigc = 0.001442
+ wwlc = 0
+ lvoff = -1.4554874e-8
+ poxedge = 1
+ cdsc = 0
+ lvsat = 0.0003
+ cgbo = 0
+ cgdl = 3.0874977e-12
+ cgdo = 4.5622265999999996e-11
+ xtid = 3
+ xtis = 3
+ lvth0 = 5.1637332e-8
+ cgsl = 3.0874977e-12
+ cgso = 4.5622265999999996e-11
+ cigc = 0.000625
+ delta = 0.007595625
+ binunit = 2
+ laigc = -1.5044982e-10
+ rnoia = 0
+ rnoib = 0
+ ltvoff = -1.4627394e-10
+ a0 = 3.4752469
+ a1 = 0
+ a2 = 1
+ b0 = 0
+ b1 = 0
+ ngate = 8e+20
+ at = 61592.494
+ cf = 7.5795e-11
+ ef = 1.0
+ k1 = 0.274
+ k2 = 0.028088843000000002
+ k3 = -1.8419
+ em = 1000000.0
+ ngcon = 1
+ ll = 0
+ lw = 0
+ u0 = 0.016291951000000002
+ w0 = 0
+ ua = -1.7995884e-9
+ ub = 2.1046515e-18
+ uc = 7.3387901e-11
+ ud = 0
+ wkvth0we = 2e-12
+ wl = 0
+ wr = 1
+ xj = 8.6e-8
+ xl = 5.6700000000000005e-9
+ ww = 0
+ xw = 3.4e-9
+ dmcg = 3.1e-8
+ dmci = 3.1e-8
+ dmdg = 0
+ lku0we = 2.5e-11
+ gbmin = 1e-12
+ jswgd = 1.28e-13
+ jswgs = 1.28e-13
+ trnqsmod = 0
+ epsrox = 3.9
+ k2we = 5e-5
+ rdsmod = 0
+ jtsswgd = 2.3e-7
+ jtsswgs = 2.3e-7
+ dsub = 0.75
+ dtox = 2.7e-10
+ igbmod = 1
+ dvt0 = 3.2
+ dvt1 = 0.5
+ dvt2 = -0.35
+ pscbe1 = 1000000000.0
+ pscbe2 = 1e-20
+ ags = 0.94104901
+ pbswgd = 0.95
+ pbswgs = 0.95
+ eta0 = 0.3
+ cjd = 0.00145199
+ rgatemod = 0
+ etab = -0.25
+ cit = -2.3830864e-5
+ cjs = 0.00145199
+ clc = 1e-7
+ cle = 0.6
+ bvd = 8.7
+ bvs = 8.7
+ dlc = 9.8024918e-9
+ tnjtsswg = 1
+ k3b = 1.9326
+ igcmod = 1
+ dwb = 0
+ dwc = 0
+ dwg = 0
+ dwj = 0
+ tvoff = 0.0019272336
+ la0 = -2.0249698e-6
+ jsd = 6.11e-7
+ jss = 6.11e-7
+ lat = 0.093963481
+ kt1 = -0.19577666
+ lk2 = -1.337342e-8
+ kt2 = -0.051823539
+ xjbvd = 1
+ llc = 0
+ xjbvs = 1
+ lln = 1
+ tvfbsdoff = 0.022
+ lk2we = -1.5e-12
+ lu0 = -2.0013361e-9
+ mjd = 0.26
+ lua = -2.1741579e-16
+ mjs = 0.26
+ lub = -8.5898229e-27
+ luc = -7.902321e-19
+ lud = 0
+ lwc = 0
+ lwl = 0
+ lwn = 1
+ njtsswg = 9
+ njd = 1.02
+ njs = 1.02
+ pa0 = 0
+ nsd = 1e+20
+ pbd = 0.52
+ pat = 6e-11
+ pbs = 0.52
+ pu0 = 0
+ xtsswgd = 0.18
+ prt = 0
+ pud = 0
+ xtsswgs = 0.18
+ rsh = 17.5
+ tcj = 0.00076
+ ua1 = 1.2713861e-9
+ ub1 = -7.4616446e-19
+ ku0we = -0.0007
+ uc1 = 2.5703642e-11
+ ckappad = 0.6
+ ckappas = 0.6
+ beta0 = 13
+ tpb = 0.0014
+ wa0 = 0
+ leta0 = 0
+ pdiblc1 = 0
+ pdiblc2 = 0.018620322
+ pdiblcb = -0.3
+ ute = -1.0077691
+ wat = 0
+ web = 6843.8
+ wec = -25529.0
+ wlc = 0
+ wln = 1
+ wu0 = 2e-11
+ xgl = -1.09e-8
+ xgw = 0
+ permod = 1
+ wud = 0
+ wwc = 0
+ wwl = 0
+ wwn = 1
+ dlcig = 2.5e-9
+ bgidl = 2320000000.0
+ wvfbsdoff = 0
+ lvfbsdoff = 0
+ bigbacc = 0.002588
+ voffcv = -0.16942
+ wpemod = 1
+ dmcgt = 0
+ tcjsw = 0.000357
+ kvth0we = 0.00018
+ lintnoi = -1.5e-8
+ bigbinv = 0.004953
+ vtsswgd = 4.2
+ vtsswgs = 4.2
+ keta = -0.059896633
+ ijthsfwd = 0.01
+ bigsd = 0.00125
+ lags = -3.1905621e-8
+ jswd = 1.28e-13
+ jsws = 1.28e-13
+ lcit = 1.1172395e-9
+ wvoff = 0
+ kt1l = 0
+ tpbswg = 0.0009
+ wvsat = 0
+ wvth0 = 2.6e-9
+ ijthsrev = 0.01
+ lint = 6.5375218e-9
+ lkt1 = -3.9999573e-8
+ lkt2 = -1.2823887e-8
+ wtvfbsdoff = 0
+ lmax = 8.99743e-6
+ lmin = 8.974099999999999e-7
+ lpe0 = 9.2e-8
+ lpeb = 2.5e-7
+ ptvoff = 0
+ lketa = -9.2926692e-10
+ xpart = 1
+ ltvfbsdoff = 0
+ minv = -0.3
+ lua1 = -3.7234224e-16
+ lub1 = 1.9426851e-25
+ luc1 = 4.1141459e-17
+ nfactor = 1
+ diomod = 1
+ ndep = 1e+18
+ lute = 6.9145309e-9
+ egidl = 0.29734
+ lwlc = 0
+ moin = 5.1
+ pditsd = 0
+ pditsl = 0
+ cjswgd = 3.0174000000000004e-10
+ pku0we = -1.5e-18
+ cjswgs = 3.0174000000000004e-10
+ nigc = 3.083
+ noff = 2.7195
+ noia = 3.11e+42
+ noib = 1.22e+22
+ noic = 45200000.0
+ mjswgd = 0.85
+ mjswgs = 0.85
+ nigbacc = 10
+ ptvfbsdoff = 0
+ tcjswg = 0.001
+ ntox = -0.31099999999999994
+ pkvth0we = -1.3e-19
+ pcit = 0
+ pclm = 1.4
+ pvoff = -7e-17
+ nigbinv = 10
+ phin = 0.15
+ cdscb = 0
+ cdscd = 0
+ vfbsdoff = 0.02
+ pvsat = 0
+ wk2we = 5e-12
+ pkt1 = 0
+ pvth0 = 2.3e-16
+ drout = 0.56
+ voffl = 0
+ fprout = 300
+ paramchk = 1
+ rbdb = 50
+ prwb = 0
+ prwg = 0
+ pub1 = 0
+ xrcrg1 = 12
+ xrcrg2 = 1
+ fnoimod = 1
+ weta0 = 0
+ rbpb = 50
+ rbpd = 50
+ rbps = 50
+ rbsb = 50
+ pvag = 1.2
+ eigbinv = 1.1
+ rdsw = 100
+ )

.model nch_ss_3 nmos (
+ level = 54
+ ku0we = -0.0007
+ beta0 = 13
+ dmcg = 3.1e-8
+ dmci = 3.1e-8
+ dmdg = 0
+ leta0 = 0
+ ijthsrev = 0.01
+ kvth0we = 0.00018
+ lintnoi = -1.5e-8
+ k2we = 5e-5
+ bigbinv = 0.004953
+ dlcig = 2.5e-9
+ vtsswgd = 4.2
+ vtsswgs = 4.2
+ bgidl = 2320000000.0
+ dsub = 0.75
+ wvfbsdoff = 0
+ dtox = 2.7e-10
+ lvfbsdoff = 0
+ dvt0 = 3.2
+ dvt1 = 0.5
+ dvt2 = -0.35
+ eta0 = 0.3
+ dmcgt = 0
+ etab = -0.25
+ tcjsw = 0.000357
+ bigsd = 0.00125
+ alpha0 = 2e-10
+ alpha1 = 3.6
+ wvoff = 0
+ pkvth0we = -1.3e-19
+ nfactor = 1
+ wvsat = 0
+ wvth0 = 2.6e-9
+ vfbsdoff = 0.02
+ lketa = -2.6515603e-8
+ toxref = 3e-9
+ xpart = 1
+ nigbacc = 10
+ paramchk = 1
+ egidl = 0.29734
+ nigbinv = 10
+ keta = -0.031147941
+ ltvoff = -6.4393769e-10
+ ijthdfwd = 0.01
+ lags = 4.0889306e-7
+ jswd = 1.28e-13
+ jsws = 1.28e-13
+ lcit = -1.0651822e-10
+ kt1l = 0
+ lku0we = 2.5e-11
+ fnoimod = 1
+ ijthdrev = 0.01
+ epsrox = 3.9
+ eigbinv = 1.1
+ pvoff = -7e-17
+ lint = 6.5375218e-9
+ cdscb = 0
+ cdscd = 0
+ lkt1 = -1.7764368e-8
+ lkt2 = -1.1493547e-8
+ lmax = 8.974099999999999e-7
+ lpdiblc2 = 3.0380287e-9
+ pvsat = 0
+ lmin = 4.4741e-7
+ rdsmod = 0
+ wk2we = 5e-12
+ pvth0 = 2.3e-16
+ drout = 0.56
+ igbmod = 1
+ lpe0 = 9.2e-8
+ lpeb = 2.5e-7
+ pscbe1 = 1000000000.0
+ pscbe2 = 1e-20
+ minv = -0.3
+ voffl = 0
+ lua1 = -1.0281867e-16
+ lub1 = 1.8552992e-26
+ luc1 = 3.7680622e-18
+ pbswgd = 0.95
+ pbswgs = 0.95
+ ndep = 1e+18
+ weta0 = 0
+ lwlc = 0
+ igcmod = 1
+ moin = 5.1
+ a0 = 1.288
+ a1 = 0
+ a2 = 1
+ b0 = 0
+ b1 = 0
+ cigbacc = 0.32875
+ at = 219598.22
+ cf = 7.5795e-11
+ ef = 1.0
+ k1 = 0.274
+ k2 = 0.027010322000000003
+ k3 = -1.8419
+ em = 1000000.0
+ ll = 0
+ nigc = 3.083
+ lw = 0
+ u0 = 0.015790444
+ w0 = 0
+ ua = -1.9429424e-9
+ ub = 2.1566e-18
+ uc = 9.3717778e-11
+ ud = 0
+ wl = 0
+ wr = 1
+ xj = 8.6e-8
+ xl = 5.6700000000000005e-9
+ ww = 0
+ xw = 3.4e-9
+ lkvth0we = -2e-12
+ cgidl = 0.22
+ tnoimod = 0
+ noff = 2.7195
+ noia = 3.11e+42
+ noib = 1.22e+22
+ noic = 45200000.0
+ cigbinv = 0.006
+ acnqsmod = 0
+ pbswd = 0.8
+ pbsws = 0.8
+ ntox = -0.31099999999999994
+ pcit = 0
+ pclm = 1.4
+ pvfbsdoff = 0
+ rbodymod = 0
+ version = 4.5
+ permod = 1
+ phin = 0.15
+ tempmod = 0
+ pdits = 0
+ cigsd = 0.069865
+ pkt1 = 0
+ dvt0w = 0
+ dvt1w = 0
+ dvt2w = 0
+ aigbacc = 0.02
+ pk2we = -1e-19
+ dvtp0 = 4e-7
+ dvtp1 = 0.01
+ voffcv = -0.16942
+ wpemod = 1
+ rbdb = 50
+ prwb = 0
+ pub1 = 0
+ prwg = 0
+ rbpb = 50
+ rbpd = 50
+ rbps = 50
+ rbsb = 50
+ pvag = 1.2
+ tnoia = 0
+ rdsw = 100
+ aigbinv = 0.0163
+ peta0 = 0
+ tpbsw = 0.0019
+ wtvfbsdoff = 0
+ cjswd = 8.774000000000001e-11
+ cjsws = 8.774000000000001e-11
+ mjswd = 0.11
+ mjsws = 0.11
+ agidl = 9.41e-8
+ tpbswg = 0.0009
+ rshg = 15.6
+ ltvfbsdoff = 0
+ wkvth0we = 2e-12
+ poxedge = 1
+ trnqsmod = 0
+ ptvoff = 0
+ binunit = 2
+ scref = 1e-6
+ pigcd = 2.621
+ aigsd = 0.01077322
+ tnom = 25
+ diomod = 1
+ toxe = 2.47e-9
+ toxm = 2.43e-9
+ ptvfbsdoff = 0
+ lvoff = -1.3768912e-8
+ pditsd = 0
+ rgatemod = 0
+ pditsl = 0
+ cjswgd = 3.0174000000000004e-10
+ pku0we = -1.5e-18
+ cjswgs = 3.0174000000000004e-10
+ tnjtsswg = 1
+ lvsat = 0.0003
+ lvth0 = 7.4115504e-9
+ delta = 0.007595625
+ laigc = -5.5724245e-11
+ rnoia = 0
+ rnoib = 0
+ mjswgd = 0.85
+ mjswgs = 0.85
+ wags = 1e-8
+ jtsswgd = 2.3e-7
+ jtsswgs = 2.3e-7
+ wcit = 0
+ tcjswg = 0.001
+ ngate = 8e+20
+ voff = -0.1120845
+ acde = 0.4
+ ngcon = 1
+ vsat = 102860
+ wint = 0
+ vth0 = 0.42105892
+ gbmin = 1e-12
+ wkt1 = 1.2e-9
+ jswgd = 1.28e-13
+ wmax = 0.00090001
+ jswgs = 1.28e-13
+ aigc = 0.011679696
+ wmin = 9.0026e-6
+ ags = 0.4457696
+ cjd = 0.00145199
+ cit = 0.0013511778
+ cjs = 0.00145199
+ clc = 1e-7
+ cle = 0.6
+ bvd = 8.7
+ bvs = 8.7
+ dlc = 9.8024918e-9
+ k3b = 1.9326
+ dwb = 0
+ dwc = 0
+ fprout = 300
+ dwg = 0
+ dwj = 0
+ njtsswg = 9
+ bigc = 0.001442
+ xrcrg1 = 12
+ xrcrg2 = 1
+ wwlc = 0
+ xtsswgd = 0.18
+ xtsswgs = 0.18
+ la0 = -7.832e-8
+ jsd = 6.11e-7
+ jss = 6.11e-7
+ lat = -0.046661618
+ kt1 = -0.22076004
+ kt2 = -0.053318302
+ lk2 = -1.2413537e-8
+ llc = 0
+ cdsc = 0
+ lln = 1
+ lu0 = -1.5549956e-9
+ ckappad = 0.6
+ ckappas = 0.6
+ mjd = 0.26
+ mjs = 0.26
+ lua = -8.9830708e-17
+ lub = -5.4824e-26
+ luc = -1.8883822e-17
+ lud = 0
+ lwc = 0
+ cgbo = 0
+ wtvoff = 0
+ lwl = 0
+ lwn = 1
+ cgdl = 3.0874977e-12
+ cgdo = 4.5622265999999996e-11
+ xtid = 3
+ pdiblc1 = 0
+ pdiblc2 = 0.014549485
+ njd = 1.02
+ xtis = 3
+ njs = 1.02
+ pa0 = 0
+ pdiblcb = -0.3
+ nsd = 1e+20
+ pbd = 0.52
+ pat = 6e-11
+ pbs = 0.52
+ cgsl = 3.0874977e-12
+ cgso = 4.5622265999999996e-11
+ cigc = 0.000625
+ pu0 = 0
+ tvoff = 0.0024864064
+ prt = 0
+ pud = 0
+ tvfbsdoff = 0.022
+ rsh = 17.5
+ tcj = 0.00076
+ ijthsfwd = 0.01
+ xjbvd = 1
+ ua1 = 9.685506e-10
+ ub1 = -5.4873129e-19
+ xjbvs = 1
+ uc1 = 6.7696222e-11
+ lk2we = -1.5e-12
+ tpb = 0.0014
+ capmod = 2
+ wa0 = 0
+ ute = -1
+ wat = 0
+ web = 6843.8
+ wec = -25529.0
+ wlc = 0
+ wln = 1
+ wku0we = 2e-11
+ wu0 = 2e-11
+ xgl = -1.09e-8
+ xgw = 0
+ wud = 0
+ wwc = 0
+ wwl = 0
+ wwn = 1
+ bigbacc = 0.002588
+ mobmod = 0
+ )

.model nch_ss_4 nmos (
+ level = 54
+ minv = -0.3
+ lua1 = -3.0475764e-17
+ pk2we = -1e-19
+ lub1 = -2.9971927e-26
+ luc1 = -4.3987511e-18
+ dvtp0 = 4e-7
+ dvtp1 = 0.01
+ ndep = 1e+18
+ rgatemod = 0
+ lwlc = 0
+ moin = 5.1
+ tnjtsswg = 1
+ tnoia = 0
+ nigc = 3.083
+ peta0 = 0
+ poxedge = 1
+ alpha0 = 2e-10
+ alpha1 = 3.6
+ tpbsw = 0.0019
+ noff = 2.7195
+ noia = 3.11e+42
+ noib = 1.22e+22
+ noic = 45200000.0
+ binunit = 2
+ cjswd = 8.774000000000001e-11
+ cjsws = 8.774000000000001e-11
+ mjswd = 0.11
+ mjsws = 0.11
+ agidl = 9.41e-8
+ ntox = -0.31099999999999994
+ pcit = 0
+ pclm = 1.5439223
+ phin = 0.15
+ pkt1 = 0
+ toxref = 3e-9
+ scref = 1e-6
+ jtsswgd = 2.3e-7
+ pigcd = 2.621
+ jtsswgs = 2.3e-7
+ aigsd = 0.01077322
+ rbdb = 50
+ prwb = 0
+ pub1 = 0
+ prwg = 0
+ lvoff = -6.3216134e-9
+ rbpb = 50
+ rbpd = 50
+ rbps = 50
+ rbsb = 50
+ pvag = 1.2
+ rdsw = 100
+ lvsat = 0.0003
+ lvth0 = -4.690878e-9
+ delta = 0.007595625
+ ltvoff = -1.206053e-10
+ laigc = -1.9935708e-11
+ rnoia = 0
+ rnoib = 0
+ ijthsfwd = 0.01
+ ngate = 8e+20
+ njtsswg = 9
+ ngcon = 1
+ rshg = 15.6
+ lku0we = 2.5e-11
+ ags = 0.124315598
+ epsrox = 3.9
+ xtsswgd = 0.18
+ xtsswgs = 0.18
+ cjd = 0.00145199
+ cit = 0.00073144105
+ ijthsrev = 0.01
+ cjs = 0.00145199
+ clc = 1e-7
+ cle = 0.6
+ gbmin = 1e-12
+ bvd = 8.7
+ bvs = 8.7
+ dlc = 1.30529375e-8
+ jswgd = 1.28e-13
+ jswgs = 1.28e-13
+ k3b = 1.9326
+ ckappad = 0.6
+ ckappas = 0.6
+ dwb = 0
+ dwc = 0
+ dwg = 0
+ dwj = 0
+ rdsmod = 0
+ pdiblc1 = 0
+ pdiblc2 = 0.027331777
+ pdiblcb = -0.3
+ igbmod = 1
+ la0 = -2.4730306e-7
+ pscbe1 = 1000000000.0
+ pscbe2 = 1e-20
+ jsd = 6.11e-7
+ jss = 6.11e-7
+ lat = -0.016465258
+ kt1 = -0.23920434
+ kt2 = -0.070668297
+ lk2 = -9.6174482e-9
+ llc = -1.18e-13
+ lln = 0.7
+ lu0 = -6.303388699999999e-10
+ mjd = 0.26
+ mjs = 0.26
+ lua = -1.0757894e-17
+ lub = -4.7838952e-26
+ luc = -6.6488035e-18
+ lud = 0
+ pbswgd = 0.95
+ pbswgs = 0.95
+ lwc = 0
+ lwl = 0
+ lwn = 1
+ tnom = 25
+ njd = 1.02
+ njs = 1.02
+ pa0 = 0
+ nsd = 1e+20
+ pbd = 0.52
+ pat = 6e-11
+ pbs = 0.52
+ toxe = 2.47e-9
+ toxm = 2.43e-9
+ pu0 = 0
+ igcmod = 1
+ prt = 0
+ pud = 0
+ bigbacc = 0.002588
+ rsh = 17.5
+ tcj = 0.00076
+ ua1 = 8.041349e-10
+ ub1 = -4.3844738e-19
+ uc1 = 8.6257162e-11
+ tpb = 0.0014
+ wa0 = 0
+ ute = -1
+ wat = 0
+ web = 6843.8
+ wec = -25529.0
+ kvth0we = 0.00018
+ wlc = 0
+ wln = 1
+ wu0 = 2e-11
+ xgl = -1.09e-8
+ xgw = 0
+ tvoff = 0.0012970146
+ wud = 0
+ wwc = 0
+ wwl = 0
+ wwn = 1
+ tvfbsdoff = 0.022
+ lintnoi = -1.5e-8
+ xjbvd = 1
+ xjbvs = 1
+ wags = 1e-8
+ lk2we = -1.5e-12
+ bigbinv = 0.004953
+ vtsswgd = 4.2
+ vtsswgs = 4.2
+ wcit = 0
+ voff = -0.12901018
+ acde = 0.4
+ pkvth0we = -1.3e-19
+ ku0we = -0.0007
+ beta0 = 13
+ vsat = 102860
+ wint = 0
+ permod = 1
+ leta0 = 0
+ vth0 = 0.44856443
+ wkt1 = 1.2e-9
+ wmax = 0.00090001
+ aigc = 0.011598359
+ wmin = 9.0026e-6
+ vfbsdoff = 0.02
+ a0 = 1.6720524
+ a1 = 0
+ a2 = 1
+ b0 = 0
+ b1 = 0
+ at = 150970.13
+ cf = 7.5795e-11
+ ef = 1.0
+ k1 = 0.274
+ k2 = 0.020655575000000002
+ k3 = -1.8419
+ em = 1000000.0
+ dlcig = 2.5e-9
+ ll = -1.18e-13
+ wvfbsdoff = 0
+ lw = 0
+ u0 = 0.013688951999999999
+ bgidl = 2320000000.0
+ w0 = 0
+ lvfbsdoff = 0
+ ua = -2.1226533e-9
+ ub = 2.1407249e-18
+ uc = 6.5910917e-11
+ ud = 0
+ wl = 0
+ wr = 1
+ xj = 8.6e-8
+ xl = 5.6700000000000005e-9
+ ww = 0
+ xw = 3.4e-9
+ voffcv = -0.16942
+ wpemod = 1
+ bigc = 0.001442
+ paramchk = 1
+ wwlc = 0
+ wtvfbsdoff = 0
+ dmcgt = 0
+ tcjsw = 0.000357
+ nfactor = 1
+ cdsc = 0
+ cgbo = 0
+ cgdl = 3.0874977e-12
+ cgdo = 4.5622265999999996e-11
+ xtid = 3
+ xtis = 3
+ ltvfbsdoff = 0
+ cgsl = 3.0874977e-12
+ cgso = 4.5622265999999996e-11
+ cigc = 0.000625
+ ijthdfwd = 0.01
+ bigsd = 0.00125
+ tpbswg = 0.0009
+ wvoff = 0
+ nigbacc = 10
+ wvsat = 0
+ wvth0 = 2.6e-9
+ dmcg = 3.1e-8
+ dmci = 3.1e-8
+ dmdg = 0
+ ijthdrev = 0.01
+ ptvfbsdoff = 0
+ lpdiblc2 = -2.58618e-9
+ ptvoff = 0
+ nigbinv = 10
+ k2we = 5e-5
+ dsub = 0.75
+ lketa = -2.2644187e-8
+ dtox = 2.7e-10
+ xpart = 1
+ dvt0 = 3.2
+ dvt1 = 0.5
+ dvt2 = -0.35
+ diomod = 1
+ pditsd = 0
+ pditsl = 0
+ egidl = 0.29734
+ cjswgd = 3.0174000000000004e-10
+ pku0we = -1.5e-18
+ cjswgs = 3.0174000000000004e-10
+ eta0 = 0.3
+ etab = -0.25
+ fnoimod = 1
+ eigbinv = 1.1
+ lkvth0we = -2e-12
+ mjswgd = 0.85
+ mjswgs = 0.85
+ tcjswg = 0.001
+ acnqsmod = 0
+ rbodymod = 0
+ pvoff = -7e-17
+ cigbacc = 0.32875
+ cdscb = 0
+ cdscd = 0
+ pvsat = 0
+ wk2we = 5e-12
+ pvth0 = 2.3e-16
+ drout = 0.56
+ tnoimod = 0
+ fprout = 300
+ voffl = 0
+ xrcrg1 = 12
+ xrcrg2 = 1
+ cigbinv = 0.006
+ weta0 = 0
+ lpclm = -6.3325799e-8
+ wtvoff = 0
+ version = 4.5
+ cgidl = 0.22
+ tempmod = 0
+ keta = -0.039946614
+ capmod = 2
+ lags = 5.5033282e-7
+ wku0we = 2e-11
+ aigbacc = 0.02
+ jswd = 1.28e-13
+ jsws = 1.28e-13
+ lcit = 1.6616594000000001e-10
+ pbswd = 0.8
+ mobmod = 0
+ pbsws = 0.8
+ kt1l = 0
+ wkvth0we = 2e-12
+ pvfbsdoff = 0
+ lint = 9.7879675e-9
+ trnqsmod = 0
+ pdits = 0
+ lkt1 = -9.6488734e-9
+ lkt2 = -3.8595493e-9
+ aigbinv = 0.0163
+ lmax = 4.4741e-7
+ cigsd = 0.069865
+ lmin = 2.1410000000000002e-7
+ dvt0w = 0
+ dvt1w = 0
+ dvt2w = 0
+ lpe0 = 9.2e-8
+ lpeb = 2.5e-7
+ laigsd = -8.1082969e-17
+ )

.model nch_ss_5 nmos (
+ level = 54
+ nigbinv = 10
+ bigsd = 0.00125
+ wags = 1e-8
+ wcit = 0
+ acnqsmod = 0
+ wvoff = 0
+ voff = -0.15746310460000001
+ acde = 0.4
+ wvsat = 0
+ vsat = 102521.2852
+ wvth0 = 2.6e-9
+ rbodymod = 0
+ wint = 0
+ vth0 = 0.46456137420000004
+ wkt1 = 1.2e-9
+ wmax = 0.00090001
+ aigc = 0.011526753
+ wmin = 9.0026e-6
+ fnoimod = 1
+ eigbinv = 1.1
+ toxref = 3e-9
+ lketa = -1.1430034e-8
+ xpart = 1
+ bigc = 0.001442
+ wwlc = 0
+ egidl = 0.29734
+ cdsc = 0
+ cgbo = 0
+ cgdl = 3.0874977e-12
+ cgdo = 4.5622265999999996e-11
+ xtid = 3
+ xtis = 3
+ ltvoff = 1.4850105e-11
+ cgsl = 3.0874977e-12
+ cgso = 4.5622265999999996e-11
+ cigc = 0.000625
+ cigbacc = 0.32875
+ tnoimod = 0
+ lku0we = 2.5e-11
+ cigbinv = 0.006
+ epsrox = 3.9
+ wkvth0we = 2e-12
+ dmcg = 3.1e-8
+ dmci = 3.1e-8
+ dmdg = 0
+ pvoff = -7e-17
+ rdsmod = 0
+ trnqsmod = 0
+ cdscb = 0
+ cdscd = 0
+ igbmod = 1
+ pvsat = 0
+ version = 4.5
+ wk2we = 5e-12
+ pvth0 = 2.3e-16
+ k2we = 5e-5
+ drout = 0.56
+ pscbe1 = 1000000000.0
+ pscbe2 = 1e-20
+ tempmod = 0
+ dsub = 0.75
+ dtox = 2.7e-10
+ pbswgd = 0.95
+ pbswgs = 0.95
+ dvt0 = 3.2
+ dvt1 = 0.5
+ dvt2 = -0.35
+ voffl = 0
+ igcmod = 1
+ aigbacc = 0.02
+ weta0 = 0
+ eta0 = 0.3
+ rgatemod = 0
+ etab = -0.25
+ lpclm = -2.4377173e-8
+ tnjtsswg = 1
+ cgidl = 0.22
+ aigbinv = 0.0163
+ pbswd = 0.8
+ pbsws = 0.8
+ pvfbsdoff = 0
+ permod = 1
+ wtvfbsdoff = 0
+ pdits = 0
+ cigsd = 0.069865
+ dvt0w = 0
+ dvt1w = 0
+ poxedge = 1
+ dvt2w = 0
+ ltvfbsdoff = 0
+ voffcv = -0.16942
+ wpemod = 1
+ binunit = 2
+ pk2we = -1e-19
+ dvtp0 = 4e-7
+ dvtp1 = 0.01
+ tnoia = 0
+ peta0 = 0
+ wketa = 0
+ keta = -0.093093889
+ ptvfbsdoff = 0
+ tpbsw = 0.0019
+ ijthsfwd = 0.01
+ cjswd = 8.774000000000001e-11
+ cjsws = 8.774000000000001e-11
+ a0 = 0.66068814
+ a1 = 0
+ a2 = 1
+ b0 = 0
+ b1 = 0
+ mjswd = 0.11
+ lags = 3.3904274e-13
+ mjsws = 0.11
+ agidl = 9.41e-8
+ tpbswg = 0.0009
+ at = 79499.116
+ cf = 7.5795e-11
+ ef = 1.0
+ k1 = 0.274
+ k2 = -0.014112077999999998
+ k3 = -1.8419
+ em = 1000000.0
+ jswd = 1.28e-13
+ ll = -1.18e-13
+ jsws = 1.28e-13
+ lw = 0
+ u0 = 0.011686872
+ w0 = 0
+ lcit = 8.8591162e-11
+ ua = -2.2893587e-9
+ ub = 2.089788886e-18
+ uc = 4.5969231e-11
+ ud = 0
+ jtsswgd = 2.3e-7
+ jtsswgs = 2.3e-7
+ wl = 0
+ wr = 1
+ xj = 8.6e-8
+ xl = 5.6700000000000005e-9
+ ww = 0
+ xw = 3.4e-9
+ kt1l = 0
+ ijthsrev = 0.01
+ lint = 9.7879675e-9
+ ptvoff = 0
+ lkt1 = -3.3075226e-9
+ lkt2 = -6.0180086e-10
+ lmax = 2.1410000000000002e-7
+ lmin = 8.833e-8
+ lpe0 = 9.2e-8
+ lpeb = 2.5e-7
+ scref = 1e-6
+ diomod = 1
+ pigcd = 2.621
+ minv = -0.3
+ aigsd = 0.01077322
+ lua1 = 7.6861327e-18
+ lub1 = -5.2342256e-26
+ luc1 = -4.2210821e-18
+ pditsd = 0
+ pditsl = 0
+ cjswgd = 3.0174000000000004e-10
+ pku0we = -1.5e-18
+ cjswgs = 3.0174000000000004e-10
+ ndep = 1e+18
+ lvoff = -3.1806260000000004e-10
+ njtsswg = 9
+ lwlc = 0
+ moin = 5.1
+ lvsat = 0.00037148429999999994
+ xtsswgd = 0.18
+ xtsswgs = 0.18
+ lvth0 = -8.0662159e-9
+ nigc = 3.083
+ delta = 0.007595625
+ mjswgd = 0.85
+ mjswgs = 0.85
+ laigc = -4.8268328e-12
+ ckappad = 0.6
+ ckappas = 0.6
+ pdiblc1 = 0
+ pdiblc2 = 0.02163037
+ pdiblcb = -0.3
+ tcjswg = 0.001
+ rnoia = 0
+ rnoib = 0
+ ags = 2.7325264
+ noff = 2.7195
+ noia = 3.11e+42
+ noib = 1.22e+22
+ noic = 45200000.0
+ cjd = 0.00145199
+ cit = 0.001099094
+ cjs = 0.00145199
+ clc = 1e-7
+ cle = 0.6
+ bvd = 8.7
+ bvs = 8.7
+ dlc = 1.30529375e-8
+ pketa = 0
+ ngate = 8e+20
+ k3b = 1.9326
+ dwb = 0
+ dwc = 0
+ dwg = 0
+ dwj = 0
+ ngcon = 1
+ pkvth0we = -1.3e-19
+ ntox = -0.31099999999999994
+ pcit = 0
+ pclm = 1.3593316
+ bigbacc = 0.002588
+ la0 = -3.3904685e-8
+ gbmin = 1e-12
+ jsd = 6.11e-7
+ jss = 6.11e-7
+ lat = -0.0013848735
+ kt1 = -0.26925814
+ kt2 = -0.086107863
+ lk2 = -2.2814734e-9
+ jswgd = 1.28e-13
+ jswgs = 1.28e-13
+ llc = -1.18e-13
+ lln = 0.7
+ phin = 0.15
+ lu0 = -2.0789995e-10
+ mjd = 0.26
+ mjs = 0.26
+ lua = 2.4416942e-17
+ lub = -3.7091512499999996e-26
+ luc = -2.4411077e-18
+ lud = 0
+ lwc = 0
+ lwl = 0
+ lwn = 1
+ vfbsdoff = 0.02
+ njd = 1.02
+ njs = 1.02
+ pa0 = 0
+ nsd = 1e+20
+ kvth0we = 0.00018
+ pbd = 0.52
+ pat = 6e-11
+ pbs = 0.52
+ pkt1 = 0
+ pu0 = 0
+ prt = 0
+ fprout = 300
+ pub = 0
+ pud = 0
+ lintnoi = -1.5e-8
+ rsh = 17.5
+ xrcrg1 = 12
+ xrcrg2 = 1
+ tcj = 0.00076
+ ua1 = 6.2327283e-10
+ ub1 = -3.3242687e-19
+ uc1 = 8.5415128e-11
+ bigbinv = 0.004953
+ vtsswgd = 4.2
+ vtsswgs = 4.2
+ tpb = 0.0014
+ wa0 = 0
+ ute = -1
+ paramchk = 1
+ wat = 0
+ web = 6843.8
+ wec = -25529.0
+ wlc = 0
+ wln = 1
+ wu0 = 2e-11
+ rbdb = 50
+ xgl = -1.09e-8
+ prwb = 0
+ pub1 = 0
+ prwg = 0
+ xgw = 0
+ wub = 0
+ wud = 0
+ wwc = 0
+ wwl = 0
+ wwn = 1
+ rbpb = 50
+ rbpd = 50
+ wtvoff = 0
+ rbps = 50
+ rbsb = 50
+ pvag = 1.2
+ rdsw = 100
+ tvfbsdoff = 0.022
+ tvoff = 0.00065504585
+ capmod = 2
+ ijthdfwd = 0.01
+ xjbvd = 1
+ xjbvs = 1
+ lk2we = -1.5e-12
+ wku0we = 2e-11
+ mobmod = 0
+ rshg = 15.6
+ ku0we = -0.0007
+ beta0 = 13
+ leta0 = 0
+ ijthdrev = 0.01
+ nfactor = 1
+ lpdiblc2 = -1.3831831e-9
+ wvfbsdoff = 0
+ dlcig = 2.5e-9
+ lvfbsdoff = 0
+ bgidl = 2320000000.0
+ laigsd = 3.3904273e-17
+ tnom = 25
+ toxe = 2.47e-9
+ toxm = 2.43e-9
+ nigbacc = 10
+ dmcgt = 0
+ tcjsw = 0.000357
+ lkvth0we = -2e-12
+ alpha0 = 2e-10
+ alpha1 = 3.6
+ )

.model nch_ss_6 nmos (
+ level = 54
+ xtsswgd = 0.18
+ xtsswgs = 0.18
+ vfbsdoff = 0.02
+ toxref = 3e-9
+ ckappad = 0.6
+ ckappas = 0.6
+ pdiblc1 = 0
+ pdiblc2 = 0.0069155858
+ scref = 1e-6
+ pdiblcb = -0.3
+ pigcd = 2.621
+ aigsd = 0.01077322
+ paramchk = 1
+ lvoff = -2.06441089e-9
+ ags = 2.7325299999999997
+ lvsat = 0.0024722048699999995
+ ltvoff = 1.0839662e-10
+ lvth0 = 2.2492931699999996e-9
+ bigbacc = 0.002588
+ cjd = 0.00145199
+ cit = -3.6108899999999955e-6
+ cjs = 0.00145199
+ clc = 1e-7
+ cle = 0.6
+ bvd = 8.7
+ bvs = 8.7
+ delta = 0.007595625
+ dlc = 3.26497e-9
+ k3b = 1.9326
+ laigc = -2.2427226e-11
+ dwb = 0
+ dwc = 0
+ dwg = 0
+ dwj = 0
+ keta = -0.52835722
+ rnoia = 0
+ rnoib = 0
+ ijthdfwd = 0.01
+ kvth0we = 0.00018
+ la0 = 3.0288889e-8
+ jsd = 6.11e-7
+ lintnoi = -1.5e-8
+ jss = 6.11e-7
+ lat = 1.9707860000000026e-5
+ kt1 = -0.40872879
+ kt2 = -0.10088778
+ lk2 = -4.8654938e-10
+ lku0we = 2.5e-11
+ pketa = 0
+ jswd = 1.28e-13
+ jsws = 1.28e-13
+ ngate = 8e+20
+ bigbinv = 0.004953
+ llc = 0
+ lln = 1
+ lu0 = 9.683078e-11
+ lcit = 1.9224546e-10
+ vtsswgd = 4.2
+ vtsswgs = 4.2
+ mjd = 0.26
+ mjs = 0.26
+ lua = 3.5218789e-17
+ lub = -1.9869262700000004e-26
+ luc = 2.2716666e-18
+ lud = 0
+ epsrox = 3.9
+ lwc = 0
+ lwl = 0
+ lwn = 1
+ ngcon = 1
+ njd = 1.02
+ njs = 1.02
+ kt1l = 0
+ pa0 = 0
+ nsd = 1e+20
+ pbd = 0.52
+ pat = 6e-11
+ pbs = 0.52
+ pu0 = 0.0
+ prt = 0
+ pub = 0
+ puc = 0
+ pud = 0
+ rdsmod = 0
+ ijthdrev = 0.01
+ gbmin = 1e-12
+ jswgd = 1.28e-13
+ rsh = 17.5
+ jswgs = 1.28e-13
+ lint = 0
+ tcj = 0.00076
+ igbmod = 1
+ ua1 = 8.897383e-10
+ ub1 = -8.0235504e-19
+ uc1 = -6.3390556e-11
+ tpb = 0.0014
+ lkt1 = 9.8027184e-9
+ lkt2 = 7.8751111e-10
+ wa0 = 0
+ lpdiblc2 = 6.6256944e-15
+ lmax = 8.833e-8
+ ute = -1
+ wat = 0
+ web = 6843.8
+ pscbe1 = 1000000000.0
+ wec = -25529.0
+ pscbe2 = 1e-20
+ lmin = 5.233e-8
+ wlc = 0
+ wln = 1
+ wu0 = 2e-11
+ xgl = -1.09e-8
+ xgw = 0
+ wub = 0
+ wuc = 0
+ wud = 0
+ lpe0 = 9.2e-8
+ wwc = 0
+ wwl = 0
+ wwn = 1
+ pbswgd = 0.95
+ lpeb = 2.5e-7
+ pbswgs = 0.95
+ minv = -0.3
+ igcmod = 1
+ lua1 = -1.7361621e-17
+ lub1 = -8.1690078e-27
+ luc1 = 9.7666522e-18
+ ndep = 1e+18
+ lwlc = 0
+ moin = 5.1
+ nigc = 3.083
+ tvfbsdoff = 0.022
+ nfactor = 1
+ lkvth0we = -2e-12
+ tvoff = -0.00034012981
+ wtvfbsdoff = 0
+ xjbvd = 1
+ xjbvs = 1
+ lk2we = -1.5e-12
+ noff = 2.7195
+ noia = 3.11e+42
+ noib = 1.22e+22
+ noic = 45200000.0
+ acnqsmod = 0
+ ltvfbsdoff = 0
+ permod = 1
+ ntox = -0.31099999999999994
+ pcit = 0.0
+ ku0we = -0.0007
+ pclm = 1.2209944
+ beta0 = 13
+ rbodymod = 0
+ leta0 = 3.0288889e-9
+ nigbacc = 10
+ letab = -2.2684433e-8
+ phin = 0.15
+ wvfbsdoff = 0
+ lvfbsdoff = 0
+ pkt1 = 0
+ dlcig = 2.5e-9
+ bgidl = 2320000000.0
+ voffcv = -0.16942
+ wpemod = 1
+ nigbinv = 10
+ ptvfbsdoff = 0
+ rbdb = 50
+ prwb = 0
+ pub1 = 0
+ prwg = 0
+ dmcgt = 0
+ rbpb = 50
+ rbpd = 50
+ rbps = 50
+ rbsb = 50
+ pvag = 1.2
+ tcjsw = 0.000357
+ rdsw = 100
+ fnoimod = 1
+ eigbinv = 1.1
+ bigsd = 0.00125
+ tpbswg = 0.0009
+ wvoff = 0
+ rshg = 15.6
+ wkvth0we = 2e-12
+ wvsat = 0.0
+ wvth0 = 2.6e-9
+ ptvoff = 0
+ trnqsmod = 0
+ cigbacc = 0.32875
+ diomod = 1
+ lketa = 2.9484719e-8
+ xpart = 1
+ pditsd = 0
+ pditsl = 0
+ tnoimod = 0
+ cjswgd = 3.0174000000000004e-10
+ pku0we = -1.5e-18
+ cjswgs = 3.0174000000000004e-10
+ tnom = 25
+ toxe = 2.47e-9
+ toxm = 2.43e-9
+ egidl = 0.29734
+ a0 = -0.02222221999999996
+ a1 = 0
+ a2 = 1
+ b0 = 0
+ b1 = 0
+ rgatemod = 0
+ at = 64556.761
+ cf = 7.5795e-11
+ ef = 1.0
+ k1 = 0.274
+ k2 = -0.033207015
+ k3 = -1.8419
+ em = 1000000.0
+ cigbinv = 0.006
+ ll = 0
+ lw = 0
+ u0 = 0.0084450556
+ tnjtsswg = 1
+ w0 = 0
+ ua = -2.404272e-9
+ ub = 1.906573466e-18
+ uc = -4.166667e-12
+ ud = 0
+ wl = 0
+ wr = 1
+ xj = 8.6e-8
+ xl = 5.6700000000000005e-9
+ ww = 0
+ xw = 3.4e-9
+ mjswgd = 0.85
+ mjswgs = 0.85
+ tcjswg = 0.001
+ version = 4.5
+ wags = 1e-8
+ tempmod = 0
+ wcit = 0.0
+ voff = -0.138884931
+ acde = 0.4
+ aigbacc = 0.02
+ vsat = 80173.2
+ wint = 0
+ vth0 = 0.354821916
+ pvoff = -7e-17
+ wkt1 = 1.2e-9
+ wmax = 0.00090001
+ aigc = 0.011713991
+ wmin = 9.0026e-6
+ cdscb = 0
+ cdscd = 0
+ pvsat = 0.0
+ wk2we = 5e-12
+ pvth0 = 2.3e-16
+ fprout = 300
+ drout = 0.56
+ xrcrg1 = 12
+ xrcrg2 = 1
+ aigbinv = 0.0163
+ voffl = 0
+ bigc = 0.001442
+ wwlc = 0
+ wtvoff = 0
+ weta0 = 0
+ lpclm = -1.1373478e-8
+ cdsc = 0
+ cgbo = 0
+ cgdl = 3.0874977e-12
+ cgdo = 4.5622265999999996e-11
+ xtid = 3
+ xtis = 3
+ cgidl = 0.22
+ cgsl = 3.0874977e-12
+ cgso = 4.5622265999999996e-11
+ cigc = 0.000625
+ capmod = 2
+ wku0we = 2e-11
+ ijthsfwd = 0.01
+ poxedge = 1
+ mobmod = 0
+ pbswd = 0.8
+ pvfbsdoff = 0
+ pbsws = 0.8
+ binunit = 2
+ dmcg = 3.1e-8
+ dmci = 3.1e-8
+ dmdg = 0
+ ijthsrev = 0.01
+ pdits = 0
+ cigsd = 0.069865
+ dvt0w = 0
+ dvt1w = 0