* diffpair_nmos
.model nch_ss_13 nmos (
+ level = 54
+ vtsswgd = 4.2
+ vtsswgs = 4.2
+ lint = 9.7879675e-9
+ bigsd = 0.00125
+ lkt1 = -3.621126e-9
+ lkt2 = -5.6046527e-10
+ lmax = 2.1410000000000002e-7
+ alpha0 = 2e-10
+ alpha1 = 3.6
+ lmin = 8.833e-8
+ wvoff = -2.233608000000001e-9
+ lpe0 = 9.2e-8
+ lpeb = 2.5e-7
+ wvsat = -0.00035982647999999954
+ minv = -0.3
+ wvth0 = -3.2626169999999995e-9
+ lua1 = 8.0644671e-18
+ lub1 = -5.2760301e-26
+ luc1 = -4.6427809e-18
+ ags = 2.5974682
+ ndep = 1e+18
+ waigc = 3.6164887e-11
+ cjd = 0.00145199
+ cit = 0.0010410649
+ cjs = 0.00145199
+ clc = 1e-7
+ cle = 0.6
+ bvd = 8.7
+ bvs = 8.7
+ lwlc = 0
+ dlc = 1.30529375e-8
+ k3b = 1.9326
+ moin = 5.1
+ lkvth0we = -2e-12
+ dwb = 0
+ dwc = 0
+ dwg = 0
+ dwj = 0
+ nigc = 3.083
+ lketa = -1.0074554e-8
+ xpart = 1
+ la0 = -3.95931149e-8
+ jsd = 6.11e-7
+ jss = 6.11e-7
+ lat = -0.0014760989
+ toxref = 3e-9
+ kt1 = -0.26670569
+ lk2 = -2.2996724e-9
+ kt2 = -0.085875374
+ llc = -1.18e-13
+ lln = 0.7
+ a0 = 0.69883298
+ a1 = 0
+ a2 = 1
+ lu0 = -2.0539706e-10
+ b0 = 0
+ b1 = 0
+ acnqsmod = 0
+ mjd = 0.26
+ lua = 2.3685126e-17
+ mjs = 0.26
+ lub = -3.581049857e-26
+ luc = -1.971816e-18
+ lud = 0
+ at = 80629.42
+ cf = 7.5795e-11
+ lwc = 0
+ noff = 2.7195
+ lwl = 0
+ lwn = 1
+ ef = 1.0
+ k1 = 0.274
+ k2 = -0.013489977
+ k3 = -1.8419
+ em = 1000000.0
+ noia = 3.11e+42
+ noib = 1.22e+22
+ noic = 45200000.0
+ njd = 1.02
+ njs = 1.02
+ nfactor = 1
+ pa0 = 5.1229998e-14
+ egidl = 0.29734
+ ll = -1.18e-13
+ lw = 0
+ u0 = 0.011697379999999999
+ w0 = 0
+ nsd = 1e+20
+ pbd = 0.52
+ pat = 8.8157566e-10
+ pbs = 0.52
+ ua = -2.2820921e-9
+ ub = 2.0823870489000003e-18
+ uc = 4.4751766e-11
+ ud = 0
+ pk2 = 1.6389978e-16
+ wl = 0
+ wr = 1
+ xj = 8.6e-8
+ xl = 5.6700000000000005e-9
+ ww = 0
+ xw = 3.4e-9
+ pu0 = -2.2541017e-17
+ prt = 0
+ pua = 6.5907354e-24
+ pub = -1.1536808500000001e-32
+ puc = -4.2264406e-24
+ pud = 0
+ pags = -3.4153056e-19
+ rbodymod = 0
+ rsh = 17.5
+ tcj = 0.00076
+ ua1 = 6.1728936e-10
+ ub1 = -3.2327621e-19
+ uc1 = 8.8169819e-11
+ ntox = -0.31099999999999994
+ pcit = -6.0109378e-17
+ pclm = 1.3619854
+ tpb = 0.0014
+ wa0 = -3.4353242e-7
+ ute = -1
+ wat = -0.010179511
+ web = 6843.8
+ wec = -25529.0
+ wk2 = -5.6026458e-9
+ wlc = 0
+ wln = 1
+ wu0 = -7.4638093e-11
+ xgl = -1.09e-8
+ xgw = 0
+ wua = -6.5442869e-17
+ wub = 6.6660889e-26
+ wuc = 1.0964484e-17
+ wud = 0
+ wwc = 0
+ wwl = 0
+ wwn = 1
+ ltvoff = 4.8985213e-12
+ phin = 0.15
+ pvfbsdoff = 0
+ nigbacc = 10
+ pkt1 = 2.8243122e-15
+ pkt2 = -3.7226831e-16
+ wpdiblc2 = -7.3538749e-9
+ lku0we = 2.5e-11
+ pvoff = 8.011494700000001e-16
+ rbdb = 50
+ pua1 = -3.4072796e-24
+ prwb = 0
+ prwg = 0
+ pub1 = 3.7649133e-33
+ epsrox = 3.9
+ puc1 = 3.7978198e-24
+ cdscb = 0
+ cdscd = 0
+ rbpb = 50
+ rbpd = 50
+ nigbinv = 10
+ rbps = 50
+ rbsb = 50
+ pvag = 1.2
+ pvsat = -3.0219949000000006e-10
+ wk2we = 5e-12
+ pvth0 = -3.6404360000000004e-16
+ rdsw = 100
+ drout = 0.56
+ rdsmod = 0
+ igbmod = 1
+ paigc = -1.7357437e-18
+ voffl = 0
+ pscbe1 = 1000000000.0
+ pscbe2 = 1e-20
+ pbswgd = 0.95
+ pbswgs = 0.95
+ weta0 = 0
+ wetab = -1.0073378e-8
+ wkvth0we = 2e-12
+ fnoimod = 1
+ lpclm = -2.540677e-8
+ igcmod = 1
+ eigbinv = 1.1
+ rshg = 15.6
+ trnqsmod = 0
+ cgidl = 0.22
+ pbswd = 0.8
+ pbsws = 0.8
+ paigsd = -5.1229584e-23
+ rgatemod = 0
+ tnom = 25
+ cigbacc = 0.32875
+ tnjtsswg = 1
+ toxe = 2.47e-9
+ toxm = 2.43e-9
+ permod = 1
+ pdits = 0
+ cigsd = 0.069865
+ tnoimod = 0
+ dvt0w = 0
+ dvt1w = 0
+ dvt2w = 0
+ cigbinv = 0.006
+ pk2we = -1e-19
+ dvtp0 = 4e-7
+ dvtp1 = 0.01
+ wags = 1.2263337999999998e-6
+ voffcv = -0.16942
+ wpemod = 1
+ wcit = 5.2261028e-10
+ tnoia = 0
+ voff = -0.1572150866
+ version = 4.5
+ acde = 0.4
+ tempmod = 0
+ peta0 = 0
+ vsat = 102561.23895
+ wint = 0
+ vth0 = 0.46521233990000005
+ wketa = 1.0437078e-7
+ wkt1 = -2.1787309999999998e-8
+ wkt2 = -2.0937989e-9
+ tpbsw = 0.0019
+ wmax = 9.0026e-6
+ aigc = 0.011522737
+ wmin = 9.025999999999999e-7
+ cjswd = 8.774000000000001e-11
+ aigbacc = 0.02
+ cjsws = 8.774000000000001e-11
+ mjswd = 0.11
+ mjsws = 0.11
+ agidl = 9.41e-8
+ wua1 = 5.3887147e-17
+ wub1 = -8.2410881e-26
+ wuc1 = -2.4808749e-17
+ tpbswg = 0.0009
+ bigc = 0.001442
+ wwlc = 0
+ aigbinv = 0.0163
+ cdsc = 0
+ cgbo = 0
+ cgdl = 3.0874977e-12
+ cgdo = 4.5622265999999996e-11
+ xtid = 3
+ xtis = 3
+ ptvoff = 8.9623963e-17
+ ijthsfwd = 0.01
+ scref = 1e-6
+ cgsl = 3.0874977e-12
+ cgso = 4.5622265999999996e-11
+ cigc = 0.000625
+ waigsd = 3.0721194e-12
+ pigcd = 2.621
+ aigsd = 0.010772879
+ diomod = 1
+ lvoff = -4.1479246e-10
+ pditsd = 0
+ pditsl = 0
+ cjswgd = 3.0174000000000004e-10
+ pku0we = -1.5e-18
+ cjswgs = 3.0174000000000004e-10
+ lvsat = 0.00040503965999999996
+ tvfbsdoff = 0.022
+ ijthsrev = 0.01
+ lvth0 = -8.000254980000001e-9
+ poxedge = 1
+ delta = 0.007595625
+ laigc = -4.6341008e-12
+ dmcg = 3.1e-8
+ dmci = 3.1e-8
+ dmdg = 0
+ binunit = 2
+ rnoia = 0
+ rnoib = 0
+ mjswgd = 0.85
+ mjswgs = 0.85
+ k2we = 5e-5
+ pketa = -1.2207451e-14
+ tcjswg = 0.001
+ ngate = 8e+20
+ dsub = 0.75
+ ngcon = 1
+ dtox = 2.7e-10
+ wpclm = -2.3899735e-8
+ dvt0 = 3.2
+ dvt1 = 0.5
+ dvt2 = -0.35
+ ppdiblc2 = 7.6111026e-16
+ gbmin = 1e-12
+ jswgd = 1.28e-13
+ jswgs = 1.28e-13
+ wvfbsdoff = 0
+ lvfbsdoff = 0
+ eta0 = 0.3
+ etab = -0.24888148
+ jtsswgd = 2.3e-7
+ jtsswgs = 2.3e-7
+ fprout = 300
+ wtvfbsdoff = 0
+ xrcrg1 = 12
+ xrcrg2 = 1
+ pkvth0we = -1.3e-19
+ ltvfbsdoff = 0
+ wtvoff = -8.2076521e-10
+ tvoff = 0.00074618122
+ vfbsdoff = 0.02
+ xjbvd = 1
+ xjbvs = 1
+ lk2we = -1.5e-12
+ capmod = 2
+ njtsswg = 9
+ wku0we = 2e-11
+ paramchk = 1
+ xtsswgd = 0.18
+ xtsswgs = 0.18
+ ku0we = -0.0007
+ mobmod = 0
+ beta0 = 13
+ leta0 = 0
+ ckappad = 0.6
+ ptvfbsdoff = 0
+ ckappas = 0.6
+ pdiblc1 = 0
+ pdiblc2 = 0.022446923
+ pdiblcb = -0.3
+ ppclm = 9.2725546e-15
+ dlcig = 2.5e-9
+ bgidl = 2320000000.0
+ ijthdfwd = 0.01
+ keta = -0.10468292
+ bigbacc = 0.002588
+ laigsd = 3.9592657e-17
+ lags = 3.7696529e-13
+ dmcgt = 0
+ tcjsw = 0.000357
+ jswd = 1.28e-13
+ jsws = 1.28e-13
+ lcit = 9.5265533e-11
+ kvth0we = 0.00018
+ ijthdrev = 0.01
+ kt1l = 0
+ lintnoi = -1.5e-8
+ lpdiblc2 = -1.4676946e-9
+ bigbinv = 0.004953
+ )
.model nch_ss_22 nmos (
+ level = 54
+ phin = 0.15
+ cjswd = 8.774000000000001e-11
+ cjsws = 8.774000000000001e-11
+ mjswd = 0.11
+ mjsws = 0.11
+ agidl = 9.41e-8
+ pkt1 = -2.447551e-15
+ pkt2 = 8.0276583e-16
+ ptvoff = -9.1490879e-17
+ nfactor = 1
+ paramchk = 1
+ waigsd = 3.0879615e-12
+ diomod = 1
+ rbdb = 50
+ pua1 = -1.6477593e-25
+ prwb = 0
+ prwg = 0
+ pub1 = 1.4533022e-32
+ puc1 = 1.5607499999999994e-24
+ rbpb = 50
+ rbpd = 50
+ rbps = 50
+ pditsd = 0
+ pditsl = 0
+ rbsb = 50
+ pvag = 1.2
+ cjswgd = 3.0174000000000004e-10
+ pku0we = -1.5e-18
+ cjswgs = 3.0174000000000004e-10
+ rdsw = 100
+ ijthdfwd = 0.01
+ scref = 1e-6
+ tvfbsdoff = 0.022
+ nigbacc = 10
+ pigcd = 2.621
+ aigsd = 0.010772861
+ mjswgd = 0.85
+ mjswgs = 0.85
+ lvoff = -4.968304999999992e-10
+ tcjswg = 0.001
+ lvsat = 0.0020364239840000003
+ ijthdrev = 0.01
+ lvth0 = 2.877403999999998e-10
+ nigbinv = 10
+ delta = 0.007595625
+ rshg = 15.6
+ laigc = -8.7106488e-12
+ lpdiblc2 = -4.1841324e-15
+ rnoia = 0
+ rnoib = 0
+ wvfbsdoff = 0
+ lvfbsdoff = 0
+ pketa = -2.7052976e-14
+ ngate = 8e+20
+ ngcon = 1
+ wpclm = 4.0103412e-7
+ fnoimod = 1
+ fprout = 300
+ eigbinv = 1.1
+ gbmin = 1e-12
+ tnom = 25
+ jswgd = 1.28e-13
+ jswgs = 1.28e-13
+ xrcrg1 = 12
+ xrcrg2 = 1
+ toxe = 2.47e-9
+ toxm = 2.43e-9
+ lkvth0we = -2e-12
+ wtvoff = 7.682212e-10
+ ags = 5.2595
+ cjd = 0.00145199
+ cit = 0.00012466993000000007
+ cjs = 0.00145199
+ clc = 1e-7
+ cle = 0.6
+ bvd = 8.7
+ bvs = 8.7
+ acnqsmod = 0
+ dlc = 3.26497e-9
+ k3b = 1.9326
+ dwb = 0
+ dwc = 0
+ dwg = 0
+ dwj = 0
+ wags = -1.185467e-6
+ capmod = 2
+ wcit = -2.7211382e-10
+ cigbacc = 0.32875
+ rbodymod = 0
+ wku0we = 2e-11
+ la0 = -1.9182963e-7
+ voff = -0.164304478
+ jsd = 6.11e-7
+ jss = 6.11e-7
+ lat = -0.00129425008
+ acde = 0.4
+ kt1 = -0.33033037
+ lk2 = -1.3785596e-9
+ kt2 = -0.066210327
+ mobmod = 0
+ llc = 0
+ lln = 1
+ lu0 = -3.5042418999999997e-11
+ tnoimod = 0
+ mjd = 0.26
+ tvoff = 0.00053139469
+ lua = 2.7860169e-17
+ mjs = 0.26
+ lub = -2.7395085e-26
+ luc = 1.41139916e-17
+ lud = 0
+ lwc = 0
+ lwl = 0
+ lwn = 1
+ njd = 1.02
+ vsat = 93964.74900000001
+ njs = 1.02
+ pa0 = 2.0809981e-13
+ wint = 0
+ vth0 = 0.38061184800000003
+ nsd = 1e+20
+ pbd = 0.52
+ pat = 2.13894442e-9
+ pbs = 0.52
+ pk2 = 9.5324632e-16
+ xjbvd = 1
+ xjbvs = 1
+ lk2we = -1.5e-12
+ wkt1 = 5.5684939e-9
+ wkt2 = -1.689459e-8
+ pu0 = -2.33571417e-17
+ wmax = 9.025999999999999e-7
+ prt = 0
+ pua = -6.3654423e-24
+ pub = 7.034010899999999e-33
+ puc = -7.127418999999999e-24
+ pud = 0
+ cigbinv = 0.006
+ aigc = 0.011501109
+ wmin = 5.426e-7
+ rsh = 17.5
+ tcj = 0.00076
+ ua1 = 8.1588744e-10
+ ub1 = -6.9089562e-19
+ uc1 = 5.5536722999999985e-11
+ tpb = 0.0014
+ wa0 = -3.5879278e-6
+ ute = -1
+ wat = -0.024874303599999998
+ web = 6843.8
+ wec = -25529.0
+ wk2 = -1.8075483e-8
+ ku0we = -0.0007
+ wlc = 0
+ wln = 1
+ wu0 = 2.03897552e-10
+ xgl = -1.09e-8
+ xgw = 0
+ beta0 = 13
+ wua = 1.2288469e-16
+ wub = -1.8229956900000002e-25
+ wua1 = -3.6898024e-17
+ wuc = 6.7235478e-17
+ wud = 0
+ wub1 = -9.8148649e-26
+ wuc1 = -2.0038907999999998e-17
+ wwc = 0
+ wwl = 0
+ wwn = 1
+ leta0 = -1.0826782e-8
+ wpdiblc2 = -5.8202891e-10
+ letab = -2.2164189e-8
+ version = 4.5
+ bigc = 0.001442
+ laigsd = 3.8113519e-17
+ tempmod = 0
+ wwlc = 0
+ ppclm = -2.1319035e-14
+ dlcig = 2.5e-9
+ cdsc = 0
+ bgidl = 2320000000.0
+ cgbo = 0
+ cgdl = 3.0874977e-12
+ cgdo = 4.5622265999999996e-11
+ xtid = 3
+ aigbacc = 0.02
+ xtis = 3
+ cgsl = 3.0874977e-12
+ cgso = 4.5622265999999996e-11
+ cigc = 0.000625
+ alpha0 = 2e-10
+ alpha1 = 3.6
+ dmcgt = 0
+ tcjsw = 0.000357
+ wkvth0we = 2e-12
+ aigbinv = 0.0163
+ a0 = 4.0574074
+ a1 = 0
+ a2 = 1
+ b0 = 0
+ b1 = 0
+ at = 80150.18699999999
+ cf = 7.5795e-11
+ ef = 1.0
+ k1 = 0.274
+ k2 = -0.018790666999999997
+ k3 = -1.8419
+ em = 1000000.0
+ ll = 0
+ lw = 0
+ trnqsmod = 0
+ u0 = 0.009587245
+ w0 = 0
+ ua = -2.3822425e-9
+ ub = 2.049592666e-18
+ uc = -1.5441968e-10
+ ud = 0
+ wl = 0
+ wr = 1
+ xj = 8.6e-8
+ xl = 5.6700000000000005e-9
+ ww = 0
+ xw = 3.4e-9
+ dmcg = 3.1e-8
+ dmci = 3.1e-8
+ dmdg = 0
+ bigsd = 0.00125
+ wvoff = 3.044252900000001e-8
+ k2we = 5e-5
+ dsub = 0.75
+ dtox = 2.7e-10
+ wvsat = -0.020780859999999998
+ toxref = 3e-9
+ wvth0 = -3.2732843e-8
+ rgatemod = 0
+ dvt0 = 3.2
+ dvt1 = 0.5
+ dvt2 = -0.35
+ tnjtsswg = 1
+ poxedge = 1
+ waigc = 1.9067031e-10
+ eta0 = 0.53651186
+ etab = -0.054544089
+ binunit = 2
+ lketa = 6.7720908e-8
+ xpart = 1
+ ltvoff = 6.0132739e-11
+ egidl = 0.29734
+ pvfbsdoff = 0
+ lku0we = 2.5e-11
+ epsrox = 3.9
+ jtsswgd = 2.3e-7
+ jtsswgs = 2.3e-7
+ rdsmod = 0
+ igbmod = 1
+ pscbe1 = 1000000000.0
+ pscbe2 = 1e-20
+ pvoff = -1.5923199999999998e-15
+ pbswgd = 0.95
+ pbswgs = 0.95
+ cdscb = 0
+ cdscd = 0
+ pvsat = 8.714606e-10
+ wk2we = 5e-12
+ igcmod = 1
+ pvth0 = 2.1021500000000004e-15
+ drout = 0.56
+ paigc = -1.0723924e-17
+ ijthsfwd = 0.01
+ njtsswg = 9
+ voffl = 0
+ keta = -1.0362685
+ xtsswgd = 0.18
+ xtsswgs = 0.18
+ weta0 = -2.7932191e-7
+ wetab = 6.5877739e-8
+ wtvfbsdoff = 0
+ lpclm = -1.3225653e-8
+ ckappad = 0.6
+ ckappas = 0.6
+ jswd = 1.28e-13
+ pdiblc1 = 0
+ jsws = 1.28e-13
+ pdiblc2 = 0.0082956805
+ lcit = 1.8876511000000002e-10
+ paigsd = -2.0809977e-23
+ pdiblcb = -0.3
+ ijthsrev = 0.01
+ kt1l = 0
+ cgidl = 0.22
+ ltvfbsdoff = 0
+ permod = 1
+ lint = 0
+ lkt1 = 5.3401869e-9
+ lkt2 = -2.1703039e-9
+ lmax = 8.833e-8
+ lmin = 5.233e-8
+ pbswd = 0.8
+ pbsws = 0.8
+ bigbacc = 0.002588
+ lpe0 = 9.2e-8
+ lpeb = 2.5e-7
+ ppdiblc2 = 5.6582339e-21
+ minv = -0.3
+ kvth0we = 0.00018
+ lua1 = -4.7634626e-18
+ lub1 = -2.8456569e-26
+ luc1 = 3.9907281000000113e-19
+ voffcv = -0.16942
+ wpemod = 1
+ pdits = 0
+ ndep = 1e+18
+ lintnoi = -1.5e-8
+ cigsd = 0.069865
+ ptvfbsdoff = 0
+ lwlc = 0
+ bigbinv = 0.004953
+ vtsswgd = 4.2
+ moin = 5.1
+ vtsswgs = 4.2
+ dvt0w = 0
+ dvt1w = 0
+ dvt2w = 0
+ nigc = 3.083
+ pk2we = -1e-19
+ dvtp0 = 4e-7
+ dvtp1 = 0.01
+ noff = 2.7195
+ noia = 3.11e+42
+ noib = 1.22e+22
+ noic = 45200000.0
+ pkvth0we = -1.3e-19
+ tnoia = 0
+ tpbswg = 0.0009
+ peta0 = 1.5923028e-14
+ ntox = -0.31099999999999994
+ pcit = 7.928002500000001e-18
+ petab = -3.6091995e-15
+ pclm = 1.1225851
+ vfbsdoff = 0.02
+ wketa = 3.5650261e-7
+ tpbsw = 0.0019
+ )
.model pch_ss_2 pmos (
+ level = 54
+ aigbinv = 0.009974
+ eta0 = 0.1672
+ tnoia = 0
+ etab = -0.23
+ ijthdfwd = 0.01
+ peta0 = -1.5e-17
+ toxref = 3e-9
+ pvfbsdoff = 0
+ tpbsw = 0.0025
+ cjswd = 5.457e-11
+ cjsws = 5.457e-11
+ mjswd = 0.01
+ mjsws = 0.01
+ agidl = 3.2166e-9
+ ijthdrev = 0.01
+ lpdiblc2 = 7.1311563e-9
+ poxedge = 1
+ ltvoff = -4.7585658e-10
+ binunit = 2
+ scref = 1e-6
+ pigcd = 2.572
+ aigsd = 0.0063636
+ lku0we = 1.8e-11
+ epsrox = 3.9
+ lkvth0we = 3e-12
+ lvoff = -8.0044387e-9
+ lvsat = 0.00024
+ rdsmod = 0
+ lvth0 = -5.7267628e-9
+ ags = 0.80385259
+ igbmod = 1
+ delta = 0.018814
+ laigc = -4.8397409e-11
+ cjd = 0.00144022
+ cit = 5e-6
+ cjs = 0.00144022
+ clc = 1e-7
+ cle = 0.6
+ acnqsmod = 0
+ bvd = 8.2
+ bvs = 8.2
+ dlc = 1.0572421799999999e-8
+ pscbe1 = 926400000.0
+ pscbe2 = 1e-20
+ jtsswgd = 1.75e-7
+ jtsswgs = 1.75e-7
+ k3b = 2.1176
+ rnoia = 0
+ rnoib = 0
+ dwb = 0
+ dwc = 0
+ dwg = 0
+ dwj = 0
+ keta = -0.040853613
+ pbswgd = 0.8
+ pbswgs = 0.8
+ rbodymod = 0
+ a0 = 2.5747309
+ a1 = 0
+ a2 = 1
+ b0 = 0
+ b1 = 0
+ at = 72000
+ lags = 3.062912e-7
+ ngate = 1.7e+20
+ cf = 7.598099999999999e-11
+ igcmod = 1
+ la0 = -3.9314047e-7
+ ef = 1.15
+ k1 = 0.30425
+ k2 = -0.0012551498
+ k3 = -2.5823
+ em = 20000000.0
+ jsd = 1.5e-7
+ jss = 1.5e-7
+ lat = 0.001
+ ll = 0
+ lw = 0
+ kt1 = -0.16652617
+ kt2 = -0.046491549
+ lk2 = 4.708207500000001e-9
+ u0 = 0.010074890100000001
+ ngcon = 1
+ w0 = 0
+ jswd = 3.69e-13
+ jsws = 3.69e-13
+ ua = 1.4083134e-10
+ ub = 1.1675774e-18
+ uc = 1.8373185e-11
+ ud = 0
+ llc = 0
+ wpclm = 0
+ lln = 1
+ lcit = 0
+ wl = 0
+ wr = 1
+ lu0 = 5.98779012e-12
+ xj = 1.1e-7
+ xl = 5.6700000000000005e-9
+ ww = 0
+ xw = 3.4e-9
+ mjd = 0.335
+ mjs = 0.335
+ lua = -1.0007073e-16
+ lub = 1.3480174e-25
+ luc = 1.5883665e-17
+ lud = 0
+ lwc = 0
+ lwl = 0
+ lwn = 1
+ njd = 1.02
+ kt1l = 0
+ njs = 1.02
+ pa0 = 0
+ nsd = 1e+20
+ pbd = 0.75
+ pat = 0
+ pbs = 0.75
+ pk2 = 0
+ gbmin = 1e-12
+ pu0 = 0
+ jswgd = 3.69e-13
+ prt = 0
+ jswgs = 3.69e-13
+ pud = 0
+ lint = 6.5375218e-9
+ rsh = 15.2
+ tcj = 0.000832
+ ua1 = 1.1817684e-9
+ ub1 = -1.3634053e-18
+ uc1 = 6.7786161e-11
+ tpb = 0.0016
+ lkt1 = -4.1906013000000006e-8
+ lkt2 = -8.7962711e-9
+ wa0 = 0
+ lmax = 8.99743e-6
+ ute = -1
+ lmin = 8.974099999999999e-7
+ web = 6628.3
+ wec = -16935.0
+ wk2 = 0
+ wlc = 0
+ wln = 1
+ wu0 = 0
+ xgl = -8.2e-9
+ xgw = 0
+ njtsswg = 6.489
+ lpe0 = 6.44e-8
+ wud = 0
+ wpdiblc2 = 0
+ wwc = 0
+ wwl = 0
+ wwn = 1
+ lpeb = 0
+ xtsswgd = 0.32
+ xtsswgs = 0.32
+ minv = -0.33
+ lua1 = 1.3634229e-16
+ lub1 = -2.8849398e-26
+ luc1 = 8.4851172e-18
+ permod = 1
+ ckappad = 0.6
+ ckappas = 0.6
+ ndep = 1e+18
+ pdiblc1 = 0
+ pdiblc2 = 0.0018797309
+ pdiblcb = 0
+ lwlc = 0
+ moin = 5.5538
+ nigc = 2.291
+ tvoff = 0.002668496
+ xjbvd = 1
+ xjbvs = 1
+ lk2we = 0.0
+ wkvth0we = 0.0
+ voffcv = -0.125
+ wpemod = 1
+ noff = 2.2684
+ noia = 2.86e+42
+ noib = 2.5e+24
+ noic = 31000000000.0
+ bigbacc = 0.0054401
+ trnqsmod = 0
+ ku0we = -0.0007
+ beta0 = 13.32
+ kvth0we = -0.00022
+ ntox = -1.9260000000000002
+ pcit = 0
+ pclm = 1.484
+ leta0 = -5e-10
+ lintnoi = -5e-9
+ ppclm = 0
+ bigbinv = 0.00149
+ vtsswgd = 1.1
+ vtsswgs = 1.1
+ phin = 0.15
+ dlcig = 2.5e-9
+ bgidl = 1834800000.0
+ pkt1 = 0
+ rgatemod = 0
+ tpbswg = 0.001
+ tnjtsswg = 1
+ tvfbsdoff = 0.1
+ dmcgt = 0
+ rbdb = 50
+ tcjsw = 9.34e-5
+ prwb = 0
+ prwg = 0
+ rbpb = 50
+ rbpd = 50
+ rbps = 50
+ rbsb = 50
+ pvag = 2.1
+ ptvoff = 0
+ wtvfbsdoff = 0
+ rdsw = 200
+ bigsd = 0.0003327
+ diomod = 1
+ ltvfbsdoff = 0
+ pditsd = 0
+ pditsl = 0
+ nfactor = 1
+ wvoff = 0
+ cjswgd = 1.9367000000000001e-10
+ pku0we = 0.0
+ cjswgs = 1.9367000000000001e-10
+ wvfbsdoff = 0
+ wvsat = 0
+ lvfbsdoff = 0
+ wvth0 = -2.8e-9
+ rshg = 14.1
+ mjswgd = 0.95
+ mjswgs = 0.95
+ tcjswg = 0.00128
+ lketa = -1.3453518e-8
+ ptvfbsdoff = 0
+ nigbacc = 10
+ xpart = 1
+ tnom = 25
+ egidl = 0.001
+ toxe = 2.71e-9
+ toxm = 2.67e-9
+ ijthsfwd = 0.01
+ nigbinv = 2.171
+ fprout = 200
+ xrcrg1 = 12
+ xrcrg2 = 1
+ ijthsrev = 0.01
+ fnoimod = 1
+ voff = -0.110213
+ wtvoff = 0
+ acde = 0.5
+ eigbinv = 1.1
+ pvoff = 2.5e-17
+ vsat = 120000
+ wint = 0
+ vth0 = -0.402565
+ cdscb = 0
+ cdscd = 0
+ wmax = 0.00090001
+ pvsat = -5e-11
+ aigc = 0.0068361342
+ wmin = 9.0026e-6
+ wk2we = 0.0
+ capmod = 2
+ pvth0 = -7e-17
+ drout = 0.56
+ wku0we = 1.5e-11
+ ppdiblc2 = 0
+ mobmod = 0
+ voffl = 0
+ bigc = 0.0012521
+ weta0 = -2e-10
+ cigbacc = 0.245
+ wwlc = 0
+ lpclm = 0
+ cdsc = 0
+ tnoimod = 0
+ cgbo = 0
+ cgidl = 1
+ cgdl = 2.799765e-11
+ cgdo = 2.4628259999999997e-11
+ xtid = 3
+ xtis = 3
+ cgsl = 2.799765e-11
+ cgso = 2.4628259999999997e-11
+ cigc = 0.15259
+ pkvth0we = 0.0
+ cigbinv = 0.006
+ pbswd = 0.9
+ pbsws = 0.9
+ vfbsdoff = 0.01
+ version = 4.5
+ tempmod = 0
+ dmcg = 3.1e-8
+ dmci = 3.1e-8
+ dmdg = 0
+ pdits = 0
+ cigsd = 0.013281
+ alpha0 = 1.223e-8
+ alpha1 = 0.01
+ dvt0w = 0
+ paramchk = 1
+ dvt1w = 0
+ dvt2w = 0
+ aigbacc = 0.012071
+ k2we = 5e-5
+ dsub = 0.5
+ dtox = 3.91e-10
+ pk2we = 0.0
+ dvt0 = 3.48
+ dvt1 = 0.5088
+ dvt2 = -0.25
+ dvtp0 = 6e-7
+ dvtp1 = 0.5224
+ )
.temp 125
* mp_1 outm outm vdd vdd pch_ss_2 L=5.75411e-06 W=9.40945e-6
* mp_2 outp outm vdd vdd pch_ss_2 L=5.75411e-06 W=9.40945e-6
* mnin_1_0 outm inp tail 0 nch_ss_22 L=7.50111e-08 W=7.31086e-7
* mnin_1_1 outm inp tail 0 nch_ss_22 L=7.50111e-08 W=7.31086e-7
* mnin_1_2 outm inp tail 0 nch_ss_22 L=7.50111e-08 W=7.31086e-7
* mnin_1_3 outm inp tail 0 nch_ss_22 L=7.50111e-08 W=7.31086e-7
* mnin_1_4 outm inp tail 0 nch_ss_22 L=7.50111e-08 W=7.31086e-7
* mnin_2_0 outp inn tail 0 nch_ss_22 L=7.50111e-08 W=7.31086e-7
* mnin_2_1 outp inn tail 0 nch_ss_22 L=7.50111e-08 W=7.31086e-7
* mnin_2_2 outp inn tail 0 nch_ss_22 L=7.50111e-08 W=7.31086e-7
* mnin_2_3 outp inn tail 0 nch_ss_22 L=7.50111e-08 W=7.31086e-7
* mnin_2_4 outp inn tail 0 nch_ss_22 L=7.50111e-08 W=7.31086e-7
mp_1 tail tail vdd vdd pch_ss_2 L=5.75411e-06 W=9.40945e-6

mn_tail_0 tail vbias 0 0 nch_ss_13 L=2.0781e-07 W=1.918102e-6
mn_tail_1 tail vbias 0 0 nch_ss_13 L=2.0781e-07 W=1.918102e-6
mn_tail_2 tail vbias 0 0 nch_ss_13 L=2.0781e-07 W=1.918102e-6
mn_tail_3 tail vbias 0 0 nch_ss_13 L=2.0781e-07 W=1.918102e-6
mn_tail_4 tail vbias 0 0 nch_ss_13 L=2.0781e-07 W=1.918102e-6
mn_ref_0 vbias vbias 0 0 nch_ss_13 L=2.0781e-07 W=1.918102e-6
mn_ref_1 vbias vbias 0 0 nch_ss_13 L=2.0781e-07 W=1.918102e-6
mn_ref_2 vbias vbias 0 0 nch_ss_13 L=2.0781e-07 W=1.918102e-6
mn_ref_3 vbias vbias 0 0 nch_ss_13 L=2.0781e-07 W=1.918102e-6
mn_ref_4 vbias vbias 0 0 nch_ss_13 L=2.0781e-07 W=1.918102e-6
iref vdd vbias 1.58069e-05
vdd vdd 0 1.1
vinp inp 0 0.55
vinn inn 0 0.55
rload 0 outp 1e+09

.end
