//
simulator lang=spectre insensitive=yes
library tsmclib
//   **********************************************
//   *             TSMC SPICE MODEL               *
//   **********************************************
// 
//     PROCESS :  0.040um LOGIC SALICIDE Low-K IMD (Vg=1.8V/Vd=5V) (CLN40LP HVMOS)
//     MODEL   :  BSIM4 ( V4.5 )
//     DOC. NO.:  T-N40-CL-SP-038
//     VERSION :  V1d0_1
//     DATE    :  Jan. 19, 2010
//     SPECTRE VERSION : 7.1.0.048 
// *****************************************************************************
//   Updated History:                                                         
//   *
//      Date    Version                                                       
//   *
//   1. 11/16/09 V1d0_1p1  Newly created Si based 1.8V/5V HVMOS model         
//   *
//                         LOD and WPE are not included                       
//   *
//   2. 01/19/10 V1d0_1    Model copy from V1d0_1p1 for official release
// *****************************************************************************
// *****************************************************************************
//                                                                            
//   *
//        THIS MODEL LIB CONTAINS :                                           
//   *
//                                                                            
//   *
//        1.LIB TT_hv18_snw_spw                                               
//   *
//              SS_hv18_snw_spw                                               
//   *
//              FF_hv18_snw_spw                                               
//   *
//              SF_hv18_snw_spw                                               
//   *
//              FS_hv18_snw_spw                                               
//   *
//    ( 1.8V HVMOS devices for standard NW_HVNMOS and PW_HVPMOS with different 
//  *
//      geometry and corner models)                                           
//   *
// 									     *
// *****************************************************************************
// 
//  NOTE:
//   1. All parasitics capacitances are removed from intrinsic model. The model 
//  only
//      covers the intrinsic MOSFET. All parasitic components will be handled 
//  by LPE.
//      For pre-layout simulation, contact-to-poly capacitance can be simulated 
//  by 
//      setting ccoflag_hv18_snw_spw=1.
// 
//   2. Best approximation for gate resistance extraction is 1/3 of Rg, DC gate 
//  
//      resistance. Current LPE tools extract gate resistors from gate edge to 
//  center 
//      of gate. Error of 1/2 Rg methodology is less than 5% when W/L < 30.  It 
//  is 
//      recommended to split wide gate transistor to meet W/L < 30 for high precision 
//  
//      designs. For pre-layout simulation, Rg effect can be simulated by setting 
//  
//      rgflag_hv18_snw_spw=1
// 
// **********************************************************************************
 
// ***********************    FLAG FOR CONTACT-POLY CAPACITANCE    *******************************
// 
//  NOTE: *  1. The default value of ccoflag is 0, which means that the model 
//  will exclude contact-to-poly 
//      capacitance.  LPE tools should extract this capacitance during post-layout 
//  simulation. 
//   2. Users could set ccoflag to 1 for pre-layout simulation where contact-to-poly 
//  capacitance 
//      with maximum contact density is required. 
// 
// ***********************************************************************************************
 
 
 

section setup_hv18_snw_spw
parameters ccoflag_hv18_snw_spw=0
parameters rgflag_hv18_snw_spw=0
parameters sigma_factor_hv18_snw_spw=1
 
endsection setup_hv18_snw_spw
 
// **************************     LIBRARY OF TYPICAL CASE     ***************************

section tt_hv18_snw_spw
include "cln40lp_hv_1d8_lk_v1d0_1.scs" section=setup_hv18_snw_spw
parameters toxn_hv18_snw=3.58e-09
parameters dxln_hv18_snw=0
parameters dxwn_hv18_snw=0
parameters cjdn_hv18_snw=1.35e-4
parameters cjswdn_hv18_snw=5.22e-10
parameters cjswgdn_hv18_snw=6.49e-10
parameters cjsn_hv18_snw=1.4368e-3
parameters cjswsn_hv18_snw=9.73336e-11
parameters cjswgsn_hv18_snw=1.58893e-10
parameters cgdon_hv18_snw=5e-13
parameters cgdln_hv18_snw=4.035e-9
parameters cgson_hv18_snw=4.9271e-11
parameters cgsln_hv18_snw=9.1855e-11
parameters ddlcn_hv18_snw=2.165e-007
parameters dvthn_hv18_snw=0
parameters dlvthn_hv18_snw=0
parameters dwvthn_hv18_snw=0
parameters dpvthn_hv18_snw=0
parameters du0n_hv18_snw=0
parameters dlu0n_hv18_snw=0
parameters dwu0n_hv18_snw=0
parameters dpu0n_hv18_snw=0
parameters dnfactorn_hv18_snw=0
parameters dlnfactorn_hv18_snw=0
parameters dwnfactorn_hv18_snw=0
parameters dpnfactorn_hv18_snw=0
parameters dvsatn_hv18_snw=0
parameters dlvsatn_hv18_snw=0
parameters dwvsatn_hv18_snw=0
parameters dpvsatn_hv18_snw=0
parameters dk2n_hv18_snw=0
parameters dlk2n_hv18_snw=0
parameters dwk2n_hv18_snw=0
parameters dpk2n_hv18_snw=0
parameters deta0n_hv18_snw=0
parameters dweta0n_hv18_snw=0
parameters dcitn_hv18_snw=0
parameters dlcitn_hv18_snw=0
parameters dwcitn_hv18_snw=0
parameters dpcitn_hv18_snw=0
parameters dvoffn_hv18_snw=0
parameters dlvoffn_hv18_snw=0
parameters dwvoffn_hv18_snw=0
parameters dpvoffn_hv18_snw=0
parameters da0n_hv18_snw=0
parameters dla0n_hv18_snw=0
parameters dwa0n_hv18_snw=0
parameters dpa0n_hv18_snw=0
parameters dagsn_hv18_snw=0
parameters dlagsn_hv18_snw=0
parameters dwagsn_hv18_snw=0
parameters dpagsn_hv18_snw=0
parameters dkt1n_hv18_snw=0
parameters dlkt1n_hv18_snw=0
parameters dwkt1n_hv18_snw=0
parameters dpkt1n_hv18_snw=0
parameters datn_hv18_snw=0
parameters dlatn_hv18_snw=0
parameters dwatn_hv18_snw=0
parameters dpatn_hv18_snw=0
parameters djtsswgdn_hv18_snw=0
parameters djtsswgsn_hv18_snw=0
parameters dnjtsswgn_hv18_snw=0
parameters dagidln_hv18_snw=0
parameters dlagidln_hv18_snw=0
parameters dwagidln_hv18_snw=0
parameters dpagidln_hv18_snw=0
parameters dbgidln_hv18_snw=0
parameters dlbgidln_hv18_snw=0
parameters dwbgidln_hv18_snw=0
parameters dpbgidln_hv18_snw=0
parameters ss_flag_hv18_snw_spw=0
parameters ff_flag_hv18_snw_spw=0
parameters sf_flag_hv18_snw_spw=0
parameters fs_flag_hv18_snw_spw=0
parameters cfn_hv18_snw=9.40939e-11 + 5.199e-11 * ccoflag_hv18_snw_spw
parameters toxp_hv18_spw=3.85e-09
parameters dxlp_hv18_spw=0
parameters dxwp_hv18_spw=0
parameters cjdp_hv18_spw=5.95e-04
parameters cjswdp_hv18_spw=3.38e-10
parameters cjswgdp_hv18_spw=7.97e-10
parameters cjsp_hv18_spw=1.31951e-03
parameters cjswsp_hv18_spw=7.12297e-11
parameters cjswgsp_hv18_spw=1.40158e-10
parameters cgdop_hv18_spw=7.73681e-13
parameters cgdlp_hv18_spw=1.238e-9
parameters cgsop_hv18_spw=2.5255e-11
parameters cgslp_hv18_spw=7.2878e-11
parameters ddlcp_hv18_spw=7.45e-08
parameters dvthp_hv18_spw=0
parameters dlvthp_hv18_spw=0
parameters dwvthp_hv18_spw=0
parameters dpvthp_hv18_spw=0
parameters du0p_hv18_spw=0
parameters dlu0p_hv18_spw=0
parameters dwu0p_hv18_spw=0
parameters dpu0p_hv18_spw=0
parameters dnfactorp_hv18_spw=0
parameters dlnfactorp_hv18_spw=0
parameters dwnfactorp_hv18_spw=0
parameters dpnfactorp_hv18_spw=0
parameters dvsatp_hv18_spw=0
parameters dlvsatp_hv18_spw=0
parameters dwvsatp_hv18_spw=0
parameters dpvsatp_hv18_spw=0
parameters dk2p_hv18_spw=0
parameters dlk2p_hv18_spw=0
parameters dwk2p_hv18_spw=0
parameters dpk2p_hv18_spw=0
parameters deta0p_hv18_spw=0
parameters dweta0p_hv18_spw=0
parameters dcitp_hv18_spw=0
parameters dlcitp_hv18_spw=0
parameters dwcitp_hv18_spw=0
parameters dpcitp_hv18_spw=0
parameters dvoffp_hv18_spw=0
parameters dlvoffp_hv18_spw=0
parameters dwvoffp_hv18_spw=0
parameters dpvoffp_hv18_spw=0
parameters da0p_hv18_spw=0
parameters dla0p_hv18_spw=0
parameters dwa0p_hv18_spw=0
parameters dpa0p_hv18_spw=0
parameters dagsp_hv18_spw=0
parameters dlagsp_hv18_spw=0
parameters dwagsp_hv18_spw=0
parameters dpagsp_hv18_spw=0
parameters dkt1p_hv18_spw=0
parameters dlkt1p_hv18_spw=0
parameters dwkt1p_hv18_spw=0
parameters dpkt1p_hv18_spw=0
parameters datp_hv18_spw=0
parameters dlatp_hv18_spw=0
parameters dwatp_hv18_spw=0
parameters dpatp_hv18_spw=0
parameters djtsswgdp_hv18_spw=0
parameters djtsswgsp_hv18_spw=0
parameters dnjtsswgp_hv18_spw=0
parameters dagidlp_hv18_spw=0
parameters dlagidlp_hv18_spw=0
parameters dwagidlp_hv18_spw=0
parameters dpagidlp_hv18_spw=0
parameters dbgidlp_hv18_spw=0
parameters dlbgidlp_hv18_spw=0
parameters dwbgidlp_hv18_spw=0
parameters dpbgidlp_hv18_spw=0
parameters cfp_hv18_spw=9.4395e-11 + 5.737e-11 * ccoflag_hv18_snw_spw
include "cln40lp_hv_1d8_lk_v1d0_1.scs" section=mos_hv18_snw_spw
 
endsection tt_hv18_snw_spw
 
// **************************     LIBRARY OF SNSP CORNER CASE     ***************************

section ss_hv18_snw_spw
include "cln40lp_hv_1d8_lk_v1d0_1.scs" section=setup_hv18_snw_spw
parameters a1n_hv18_snw= - 1 * sigma_factor_hv18_snw_spw
parameters a1p_hv18_spw= - 1 * sigma_factor_hv18_snw_spw
parameters a2n_hv18_snw= - 1 * sigma_factor_hv18_snw_spw
parameters a2p_hv18_spw= - 1 * sigma_factor_hv18_snw_spw
parameters a3n_hv18_snw=1 * sigma_factor_hv18_snw_spw
parameters a3p_hv18_spw=1 * sigma_factor_hv18_snw_spw
parameters a4np_hv18_snw_spw= - 1 * sigma_factor_hv18_snw_spw
parameters toxn_hv18_snw=3.58e-09 - 1.333e-010 * a4np_hv18_snw_spw
parameters dxln_hv18_snw= - 8e-009 * a2n_hv18_snw
parameters dxwn_hv18_snw= - 1.2e-008 * a3n_hv18_snw
parameters cjdn_hv18_snw=1.35e-4 * (1 - 0.07 * a1n_hv18_snw)
parameters cjswdn_hv18_snw=5.22e-10 * (1 - 0.07 * a1n_hv18_snw)
parameters cjswgdn_hv18_snw=6.49e-10 * (1 - 0.07 * a1n_hv18_snw)
parameters cjsn_hv18_snw=1.4368e-3 * (1 - 0.07 * a1n_hv18_snw)
parameters cjswsn_hv18_snw=9.73336e-11 * (1 - 0.07 * a1n_hv18_snw)
parameters cjswgsn_hv18_snw=1.58893e-10 * (1 - 0.07 * a1n_hv18_snw)
parameters cgdon_hv18_snw=5e-13 * (1 + 0.07 * a4np_hv18_snw_spw)
parameters cgdln_hv18_snw=4.035e-9 * (1 + 0.07 * a4np_hv18_snw_spw)
parameters cgson_hv18_snw=4.9271e-11 * (1 + 0.07 * a4np_hv18_snw_spw)
parameters cgsln_hv18_snw=9.1855e-11 * (1 + 0.07 * a4np_hv18_snw_spw)
parameters ddlcn_hv18_snw=2.165e-007
parameters dvthn_hv18_snw= - 0.02 * a1n_hv18_snw
parameters dlvthn_hv18_snw= - 1.1e-008 * a1n_hv18_snw
parameters dwvthn_hv18_snw= - 4.5e-009 * a1n_hv18_snw
parameters dpvthn_hv18_snw= - 6.2e-015 * a1n_hv18_snw
parameters du0n_hv18_snw=0.0009 * a1n_hv18_snw
parameters dlu0n_hv18_snw=1.48e-9 * a1n_hv18_snw
parameters dwu0n_hv18_snw= - 3.7e-010 * a1n_hv18_snw
parameters dpu0n_hv18_snw= - 4.5e-016 * a1n_hv18_snw
parameters dnfactorn_hv18_snw=0
parameters dlnfactorn_hv18_snw=0
parameters dwnfactorn_hv18_snw=0
parameters dpnfactorn_hv18_snw=0
parameters dvsatn_hv18_snw= - 30000 * a1n_hv18_snw
parameters dlvsatn_hv18_snw=0
parameters dwvsatn_hv18_snw=4.0e-3 * a1n_hv18_snw
parameters dpvsatn_hv18_snw=0
parameters dk2n_hv18_snw=0
parameters dlk2n_hv18_snw=0
parameters dwk2n_hv18_snw=0
parameters dpk2n_hv18_snw=0
parameters deta0n_hv18_snw=0
parameters dweta0n_hv18_snw=0
parameters dcitn_hv18_snw=0
parameters dlcitn_hv18_snw=0
parameters dwcitn_hv18_snw=0
parameters dpcitn_hv18_snw= - 1.6e-016 * a1n_hv18_snw
parameters dvoffn_hv18_snw=0
parameters dlvoffn_hv18_snw=0
parameters dwvoffn_hv18_snw=0.4e-8 * a1n_hv18_snw
parameters dpvoffn_hv18_snw=0
parameters da0n_hv18_snw=0
parameters dla0n_hv18_snw=0
parameters dwa0n_hv18_snw=0
parameters dpa0n_hv18_snw=0
parameters dagsn_hv18_snw= - 0.01 * a1n_hv18_snw
parameters dlagsn_hv18_snw=1.04e-007 * a1n_hv18_snw
parameters dwagsn_hv18_snw= - 2.9e-008 * a1n_hv18_snw
parameters dpagsn_hv18_snw=0.2e-014 * a1n_hv18_snw
parameters dkt1n_hv18_snw=0
parameters dlkt1n_hv18_snw=0
parameters dwkt1n_hv18_snw=0
parameters dpkt1n_hv18_snw=0
parameters datn_hv18_snw= + 60000 * a1n_hv18_snw
parameters dlatn_hv18_snw=0
parameters dwatn_hv18_snw=0
parameters dpatn_hv18_snw=0
parameters djtsswgdn_hv18_snw=5.5e-008 * a1n_hv18_snw
parameters djtsswgsn_hv18_snw=0
parameters dnjtsswgn_hv18_snw= - 5 * a1n_hv18_snw * 0
parameters dagidln_hv18_snw=0
parameters dlagidln_hv18_snw=0
parameters dwagidln_hv18_snw=0
parameters dpagidln_hv18_snw=0
parameters dbgidln_hv18_snw= - 1.2e+9 * a1n_hv18_snw
parameters dlbgidln_hv18_snw=0
parameters dwbgidln_hv18_snw=0
parameters dpbgidln_hv18_snw=0
parameters ss_flag_hv18_snw_spw=1 * sigma_factor_hv18_snw_spw
parameters ff_flag_hv18_snw_spw=0
parameters sf_flag_hv18_snw_spw=0
parameters fs_flag_hv18_snw_spw=0
parameters cfn_hv18_snw=9.40939e-11 * (1 + 0.07 * a4np_hv18_snw_spw) + 5.199e-11 
+ * ccoflag_hv18_snw_spw
parameters toxp_hv18_spw=3.85e-09 - 1.333e-010 * a4np_hv18_snw_spw
parameters dxlp_hv18_spw= - 8e-009 * a2p_hv18_spw
parameters dxwp_hv18_spw= - 1.2e-008 * a3p_hv18_spw
parameters cjdp_hv18_spw=5.95e-04 * (1 - 0.07 * a1p_hv18_spw)
parameters cjswdp_hv18_spw=3.38e-10 * (1 - 0.07 * a1p_hv18_spw)
parameters cjswgdp_hv18_spw=7.97e-10 * (1 - 0.07 * a1p_hv18_spw)
parameters cjsp_hv18_spw=1.31951e-03 * (1 - 0.07 * a1p_hv18_spw)
parameters cjswsp_hv18_spw=7.12297e-11 * (1 - 0.07 * a1p_hv18_spw)
parameters cjswgsp_hv18_spw=1.40158e-10 * (1 - 0.07 * a1p_hv18_spw)
parameters cgdop_hv18_spw=7.73681e-13 * (1 + 0.07 * a4np_hv18_snw_spw)
parameters cgdlp_hv18_spw=1.238e-9 * (1 + 0.07 * a4np_hv18_snw_spw)
parameters cgsop_hv18_spw=2.5255e-11 * (1 + 0.07 * a4np_hv18_snw_spw)
parameters cgslp_hv18_spw=7.2878e-11 * (1 + 0.07 * a4np_hv18_snw_spw)
parameters ddlcp_hv18_spw=7.45e-08
parameters dvthp_hv18_spw=0.02 * a1p_hv18_spw
parameters dlvthp_hv18_spw=1.2e-008 * a1p_hv18_spw
parameters dwvthp_hv18_spw=2.2e-009 * a1p_hv18_spw
parameters dpvthp_hv18_spw=3.0e-015 * a1p_hv18_spw
parameters du0p_hv18_spw= - 0.00002 * a1p_hv18_spw
parameters dlu0p_hv18_spw=2.1e-010 * a1p_hv18_spw
parameters dwu0p_hv18_spw=0.85e-010 * a1p_hv18_spw
parameters dpu0p_hv18_spw= - 1e-017 * a1p_hv18_spw
parameters dnfactorp_hv18_spw=0
parameters dlnfactorp_hv18_spw=0
parameters dwnfactorp_hv18_spw=0
parameters dpnfactorp_hv18_spw=0
parameters dvsatp_hv18_spw=22000 * a1p_hv18_spw
parameters dlvsatp_hv18_spw=0
parameters dwvsatp_hv18_spw= - 3.0e-2 * a1p_hv18_spw
parameters dpvsatp_hv18_spw=0
parameters dk2p_hv18_spw=0
parameters dlk2p_hv18_spw=0
parameters dwk2p_hv18_spw=0
parameters dpk2p_hv18_spw=0
parameters deta0p_hv18_spw=0
parameters dweta0p_hv18_spw=0
parameters dcitp_hv18_spw=3.5e-4 * a1p_hv18_spw
parameters dlcitp_hv18_spw=0
parameters dwcitp_hv18_spw=0
parameters dpcitp_hv18_spw= - 1.5e-16 * a1p_hv18_spw
parameters dvoffp_hv18_spw=0
parameters dlvoffp_hv18_spw=0
parameters dwvoffp_hv18_spw=0
parameters dpvoffp_hv18_spw=0
parameters da0p_hv18_spw=0
parameters dla0p_hv18_spw=0
parameters dwa0p_hv18_spw=0
parameters dpa0p_hv18_spw=0
parameters dagsp_hv18_spw=0
parameters dlagsp_hv18_spw=0
parameters dwagsp_hv18_spw=1.15e-007 * a1p_hv18_spw
parameters dpagsp_hv18_spw= - 1.3e-012 * a1p_hv18_spw
parameters dkt1p_hv18_spw=0
parameters dlkt1p_hv18_spw=0
parameters dwkt1p_hv18_spw=0
parameters dpkt1p_hv18_spw=0
parameters datp_hv18_spw= - 30000 * a1p_hv18_spw
parameters dlatp_hv18_spw=0
parameters dwatp_hv18_spw= + 5e-2 * a1p_hv18_spw
parameters dpatp_hv18_spw=0
parameters djtsswgdp_hv18_spw=4.5e-8 * a1p_hv18_spw
parameters djtsswgsp_hv18_spw=0
parameters dnjtsswgp_hv18_spw= - 6.1 * a1p_hv18_spw
parameters dagidlp_hv18_spw=0
parameters dlagidlp_hv18_spw=0
parameters dwagidlp_hv18_spw=0
parameters dpagidlp_hv18_spw=0
parameters dbgidlp_hv18_spw=0
parameters dlbgidlp_hv18_spw=0
parameters dwbgidlp_hv18_spw=0
parameters dpbgidlp_hv18_spw=0
parameters cfp_hv18_spw=9.4395e-11 * (1 + 0.07 * a4np_hv18_snw_spw) + 5.737e-11 
+ * ccoflag_hv18_snw_spw
include "cln40lp_hv_1d8_lk_v1d0_1.scs" section=mos_hv18_snw_spw
 
endsection ss_hv18_snw_spw
 
// **************************     LIBRARY OF FNFP CORNER CASE     ***************************

section ff_hv18_snw_spw
include "cln40lp_hv_1d8_lk_v1d0_1.scs" section=setup_hv18_snw_spw
parameters a1n_hv18_snw= - 1 * sigma_factor_hv18_snw_spw
parameters a1p_hv18_spw= - 1 * sigma_factor_hv18_snw_spw
parameters a2n_hv18_snw= - 1 * sigma_factor_hv18_snw_spw
parameters a2p_hv18_spw= - 1 * sigma_factor_hv18_snw_spw
parameters a3n_hv18_snw=1 * sigma_factor_hv18_snw_spw
parameters a3p_hv18_spw=1 * sigma_factor_hv18_snw_spw
parameters a4np_hv18_snw_spw= - 1 * sigma_factor_hv18_snw_spw
parameters toxn_hv18_snw=3.58e-09 + 1.3330e-010 * a4np_hv18_snw_spw
parameters dxln_hv18_snw=8e-009 * a2n_hv18_snw
parameters dxwn_hv18_snw=1.2e-008 * a3n_hv18_snw
parameters cjdn_hv18_snw=1.35e-4 * (1 + 0.070 * a1n_hv18_snw)
parameters cjswdn_hv18_snw=5.22e-10 * (1 + 0.070 * a1n_hv18_snw)
parameters cjswgdn_hv18_snw=6.49e-10 * (1 + 0.070 * a1n_hv18_snw)
parameters cjsn_hv18_snw=1.4368e-3 * (1 + 0.070 * a1n_hv18_snw)
parameters cjswsn_hv18_snw=9.73336e-11 * (1 + 0.070 * a1n_hv18_snw)
parameters cjswgsn_hv18_snw=1.58893e-10 * (1 + 0.070 * a1n_hv18_snw)
parameters cgdon_hv18_snw=5e-13 * (1 - 0.070 * a4np_hv18_snw_spw)
parameters cgdln_hv18_snw=4.035e-9 * (1 - 0.070 * a4np_hv18_snw_spw)
parameters cgson_hv18_snw=4.9271e-11 * (1 - 0.070 * a4np_hv18_snw_spw)
parameters cgsln_hv18_snw=9.1855e-11 * (1 - 0.070 * a4np_hv18_snw_spw)
parameters ddlcn_hv18_snw=2.165e-007
parameters dvthn_hv18_snw=0.02 * a1n_hv18_snw
parameters dlvthn_hv18_snw=1.1e-008 * a1n_hv18_snw
parameters dwvthn_hv18_snw=5.0e-009 * a1n_hv18_snw
parameters dpvthn_hv18_snw=6.0e-015 * a1n_hv18_snw
parameters du0n_hv18_snw= - 0.0008 * a1n_hv18_snw
parameters dlu0n_hv18_snw= - 1.43e-9 * a1n_hv18_snw
parameters dwu0n_hv18_snw=4.0e-010 * a1n_hv18_snw
parameters dpu0n_hv18_snw=5.4e-016 * a1n_hv18_snw
parameters dnfactorn_hv18_snw=0
parameters dlnfactorn_hv18_snw=0
parameters dwnfactorn_hv18_snw=0
parameters dpnfactorn_hv18_snw=0
parameters dvsatn_hv18_snw=10500 * a1n_hv18_snw
parameters dlvsatn_hv18_snw=0
parameters dwvsatn_hv18_snw= - 2.8e-3 * a1n_hv18_snw
parameters dpvsatn_hv18_snw=0
parameters dk2n_hv18_snw=0
parameters dlk2n_hv18_snw=0
parameters dwk2n_hv18_snw=0
parameters dpk2n_hv18_snw=0
parameters deta0n_hv18_snw=0
parameters dweta0n_hv18_snw=0
parameters dcitn_hv18_snw=0.5e-3 * a1n_hv18_snw * 0
parameters dlcitn_hv18_snw=0
parameters dwcitn_hv18_snw=0
parameters dpcitn_hv18_snw=1.8e-016 * a1n_hv18_snw
parameters dvoffn_hv18_snw=0
parameters dlvoffn_hv18_snw= - 0.07e-8 * a1n_hv18_snw
parameters dwvoffn_hv18_snw= - 0.4e-8 * a1n_hv18_snw
parameters dpvoffn_hv18_snw= - 0.5e-15 * a1n_hv18_snw * 0
parameters da0n_hv18_snw=0
parameters dla0n_hv18_snw=0
parameters dwa0n_hv18_snw=0
parameters dpa0n_hv18_snw=0
parameters dagsn_hv18_snw=2.0e-002 * a1n_hv18_snw
parameters dlagsn_hv18_snw= - 1.35e-007 * a1n_hv18_snw
parameters dwagsn_hv18_snw=3.4e-008 * a1n_hv18_snw
parameters dpagsn_hv18_snw= - 0.6e-014 * a1n_hv18_snw
parameters dkt1n_hv18_snw=0
parameters dlkt1n_hv18_snw=0
parameters dwkt1n_hv18_snw=0
parameters dpkt1n_hv18_snw=0
parameters datn_hv18_snw= - 20000 * a1n_hv18_snw
parameters dlatn_hv18_snw=0
parameters dwatn_hv18_snw=0
parameters dpatn_hv18_snw=0
parameters djtsswgdn_hv18_snw= - 5.5e-008 * a1n_hv18_snw
parameters djtsswgsn_hv18_snw=0
parameters dnjtsswgn_hv18_snw=0
parameters dagidln_hv18_snw=0
parameters dlagidln_hv18_snw=0
parameters dwagidln_hv18_snw=0
parameters dpagidln_hv18_snw=0
parameters dbgidln_hv18_snw=1.15e+9 * a1n_hv18_snw
parameters dlbgidln_hv18_snw=0
parameters dwbgidln_hv18_snw= - 70 * a1n_hv18_snw
parameters dpbgidln_hv18_snw=0
parameters ss_flag_hv18_snw_spw=0
parameters ff_flag_hv18_snw_spw=1 * sigma_factor_hv18_snw_spw
parameters sf_flag_hv18_snw_spw=0
parameters fs_flag_hv18_snw_spw=0
parameters cfn_hv18_snw=9.40939e-11 * (1 - 0.070 * a4np_hv18_snw_spw) + 5.199e-11 
+ * ccoflag_hv18_snw_spw
parameters toxp_hv18_spw=3.85e-09 + 1.3330e-010 * a4np_hv18_snw_spw
parameters dxlp_hv18_spw=8e-009 * a2p_hv18_spw
parameters dxwp_hv18_spw=1.2e-008 * a3p_hv18_spw
parameters cjdp_hv18_spw=5.95e-04 * (1 + 0.070 * a1p_hv18_spw)
parameters cjswdp_hv18_spw=3.38e-10 * (1 + 0.070 * a1p_hv18_spw)
parameters cjswgdp_hv18_spw=7.97e-10 * (1 + 0.070 * a1p_hv18_spw)
parameters cjsp_hv18_spw=1.31951e-03 * (1 + 0.070 * a1p_hv18_spw)
parameters cjswsp_hv18_spw=7.12297e-11 * (1 + 0.070 * a1p_hv18_spw)
parameters cjswgsp_hv18_spw=1.40158e-10 * (1 + 0.070 * a1p_hv18_spw)
parameters cgdop_hv18_spw=7.73681e-13 * (1 - 0.070 * a4np_hv18_snw_spw)
parameters cgdlp_hv18_spw=1.238e-9 * (1 - 0.070 * a4np_hv18_snw_spw)
parameters cgsop_hv18_spw=2.5255e-11 * (1 - 0.070 * a4np_hv18_snw_spw)
parameters cgslp_hv18_spw=7.2878e-11 * (1 - 0.070 * a4np_hv18_snw_spw)
parameters ddlcp_hv18_spw=7.45e-08
parameters dvthp_hv18_spw= - 0.02 * a1p_hv18_spw
parameters dlvthp_hv18_spw= - 1.15e-008 * a1p_hv18_spw
parameters dwvthp_hv18_spw= - 2.4e-009 * a1p_hv18_spw
parameters dpvthp_hv18_spw= - 2.8e-015 * a1p_hv18_spw
parameters du0p_hv18_spw=0.00004 * a1p_hv18_spw
parameters dlu0p_hv18_spw= - 1.9e-010 * a1p_hv18_spw
parameters dwu0p_hv18_spw= - 0.60e-010 * a1p_hv18_spw
parameters dpu0p_hv18_spw=1.5e-017 * a1p_hv18_spw
parameters dnfactorp_hv18_spw=0
parameters dlnfactorp_hv18_spw=0
parameters dwnfactorp_hv18_spw=0
parameters dpnfactorp_hv18_spw=0
parameters dvsatp_hv18_spw=30000 * a1p_hv18_spw
parameters dlvsatp_hv18_spw=0
parameters dwvsatp_hv18_spw=0.9e-2 * a1p_hv18_spw
parameters dpvsatp_hv18_spw=0
parameters dk2p_hv18_spw=0
parameters dlk2p_hv18_spw=0
parameters dwk2p_hv18_spw=0
parameters dpk2p_hv18_spw=0
parameters deta0p_hv18_spw=0
parameters dweta0p_hv18_spw=0
parameters dcitp_hv18_spw= - 3.5e-4 * a1p_hv18_spw
parameters dlcitp_hv18_spw=0
parameters dwcitp_hv18_spw=0
parameters dpcitp_hv18_spw=1.5e-16 * a1p_hv18_spw
parameters dvoffp_hv18_spw=0
parameters dlvoffp_hv18_spw=0
parameters dwvoffp_hv18_spw=0
parameters dpvoffp_hv18_spw=0
parameters da0p_hv18_spw=0
parameters dla0p_hv18_spw=0
parameters dwa0p_hv18_spw=0
parameters dpa0p_hv18_spw=7e-014 * a1p_hv18_spw
parameters dagsp_hv18_spw=0
parameters dlagsp_hv18_spw=0
parameters dwagsp_hv18_spw= - 2e-008 * a1p_hv18_spw
parameters dpagsp_hv18_spw=4e-013 * a1p_hv18_spw
parameters dkt1p_hv18_spw=0
parameters dlkt1p_hv18_spw=0
parameters dwkt1p_hv18_spw=0
parameters dpkt1p_hv18_spw=0
parameters datp_hv18_spw= - 70000 * a1p_hv18_spw
parameters dlatp_hv18_spw=0
parameters dwatp_hv18_spw= - 3e-2 * a1p_hv18_spw
parameters dpatp_hv18_spw=0
parameters djtsswgdp_hv18_spw= - 4.5e-8 * a1p_hv18_spw
parameters djtsswgsp_hv18_spw=0
parameters dnjtsswgp_hv18_spw=6.1 * a1p_hv18_spw
parameters dagidlp_hv18_spw=0
parameters dlagidlp_hv18_spw=0
parameters dwagidlp_hv18_spw=0
parameters dpagidlp_hv18_spw=0
parameters dbgidlp_hv18_spw=0
parameters dlbgidlp_hv18_spw=0
parameters dwbgidlp_hv18_spw=0
parameters dpbgidlp_hv18_spw=0
parameters cfp_hv18_spw=9.4395e-11 * (1 - 0.070 * a4np_hv18_snw_spw) + 5.737e-11 
+ * ccoflag_hv18_snw_spw
include "cln40lp_hv_1d8_lk_v1d0_1.scs" section=mos_hv18_snw_spw
 
endsection ff_hv18_snw_spw
 
// **************************     LIBRARY OF SNFP CORNER CASE     ***************************

section sf_hv18_snw_spw
include "cln40lp_hv_1d8_lk_v1d0_1.scs" section=setup_hv18_snw_spw
parameters a1n_hv18_snw=0.8 * sigma_factor_hv18_snw_spw
parameters a1p_hv18_spw= - 0.8 * sigma_factor_hv18_snw_spw
parameters a2n_hv18_snw=0 * sigma_factor_hv18_snw_spw
parameters a2p_hv18_spw=0 * sigma_factor_hv18_snw_spw
parameters a3n_hv18_snw= - 1 * sigma_factor_hv18_snw_spw
parameters a3p_hv18_spw=1 * sigma_factor_hv18_snw_spw
parameters a4np_hv18_snw_spw=0 * sigma_factor_hv18_snw_spw
parameters toxn_hv18_snw=3.58e-09 + 1.3330e-010 * a4np_hv18_snw_spw
parameters dxln_hv18_snw=8e-009 * a2n_hv18_snw
parameters dxwn_hv18_snw=1.2e-008 * a3n_hv18_snw
parameters cjdn_hv18_snw=1.35e-4 * (1 + 0.070 * a1n_hv18_snw)
parameters cjswdn_hv18_snw=5.22e-10 * (1 + 0.070 * a1n_hv18_snw)
parameters cjswgdn_hv18_snw=6.49e-10 * (1 + 0.070 * a1n_hv18_snw)
parameters cjsn_hv18_snw=1.4368e-3 * (1 + 0.070 * a1n_hv18_snw)
parameters cjswsn_hv18_snw=9.73336e-11 * (1 + 0.070 * a1n_hv18_snw)
parameters cjswgsn_hv18_snw=1.58893e-10 * (1 + 0.070 * a1n_hv18_snw)
parameters cgdon_hv18_snw=5e-13 * (1 - 0.070 * a4np_hv18_snw_spw)
parameters cgdln_hv18_snw=4.035e-9 * (1 - 0.070 * a4np_hv18_snw_spw)
parameters cgson_hv18_snw=4.9271e-11 * (1 - 0.070 * a4np_hv18_snw_spw)
parameters cgsln_hv18_snw=9.1855e-11 * (1 - 0.070 * a4np_hv18_snw_spw)
parameters ddlcn_hv18_snw=2.165e-007
parameters dvthn_hv18_snw=0.033 * a1n_hv18_snw
parameters dlvthn_hv18_snw=1.3e-008 * a1n_hv18_snw
parameters dwvthn_hv18_snw=3e-009 * a1n_hv18_snw
parameters dpvthn_hv18_snw=6.5e-015 * a1n_hv18_snw
parameters du0n_hv18_snw= - 0.0008 * a1n_hv18_snw
parameters dlu0n_hv18_snw= - 1.2e-9 * a1n_hv18_snw
parameters dwu0n_hv18_snw=3.7e-010 * a1n_hv18_snw
parameters dpu0n_hv18_snw=5.0e-016 * a1n_hv18_snw
parameters dnfactorn_hv18_snw=0
parameters dlnfactorn_hv18_snw=0
parameters dwnfactorn_hv18_snw=0
parameters dpnfactorn_hv18_snw=0
parameters dvsatn_hv18_snw=10500 * a1n_hv18_snw
parameters dlvsatn_hv18_snw=0
parameters dwvsatn_hv18_snw= - 2.8e-3 * a1n_hv18_snw
parameters dpvsatn_hv18_snw=0
parameters dk2n_hv18_snw=0
parameters dlk2n_hv18_snw=0
parameters dwk2n_hv18_snw=0
parameters dpk2n_hv18_snw=0
parameters deta0n_hv18_snw=0
parameters dweta0n_hv18_snw=0
parameters dcitn_hv18_snw=0
parameters dlcitn_hv18_snw=0
parameters dwcitn_hv18_snw=0
parameters dpcitn_hv18_snw=1.3e-016 * a1n_hv18_snw
parameters dvoffn_hv18_snw=0
parameters dlvoffn_hv18_snw=0
parameters dwvoffn_hv18_snw= - 0.4e-8 * a1n_hv18_snw
parameters dpvoffn_hv18_snw=0
parameters da0n_hv18_snw=0
parameters dla0n_hv18_snw=0
parameters dwa0n_hv18_snw=0
parameters dpa0n_hv18_snw=0
parameters dagsn_hv18_snw=2.0e-002 * a1n_hv18_snw * 0.5
parameters dlagsn_hv18_snw= - 1.35e-007 * a1n_hv18_snw * 0.8
parameters dwagsn_hv18_snw=3.4e-008 * a1n_hv18_snw * 0.5
parameters dpagsn_hv18_snw= - 0.6e-014 * a1n_hv18_snw * 0.5
parameters dkt1n_hv18_snw=0
parameters dlkt1n_hv18_snw=0
parameters dwkt1n_hv18_snw=0
parameters dpkt1n_hv18_snw=0
parameters datn_hv18_snw= - 20000 * a1n_hv18_snw
parameters dlatn_hv18_snw=0
parameters dwatn_hv18_snw=0
parameters dpatn_hv18_snw=0
parameters djtsswgdn_hv18_snw= - 5.5e-008 * a1n_hv18_snw
parameters djtsswgsn_hv18_snw=0
parameters dnjtsswgn_hv18_snw=0
parameters dagidln_hv18_snw=0
parameters dlagidln_hv18_snw=0
parameters dwagidln_hv18_snw=0
parameters dpagidln_hv18_snw=0
parameters dbgidln_hv18_snw=1.15e+9 * a1n_hv18_snw
parameters dlbgidln_hv18_snw=0
parameters dwbgidln_hv18_snw= - 70 * a1n_hv18_snw
parameters dpbgidln_hv18_snw=0
parameters ss_flag_hv18_snw_spw=0
parameters ff_flag_hv18_snw_spw=0
parameters sf_flag_hv18_snw_spw=1 * sigma_factor_hv18_snw_spw
parameters fs_flag_hv18_snw_spw=0
parameters cfn_hv18_snw=9.40939e-11 * (1 - 0.070 * a4np_hv18_snw_spw) + 5.199e-11 
+ * ccoflag_hv18_snw_spw
parameters toxp_hv18_spw=3.85e-09 + 1.3330e-010 * a4np_hv18_snw_spw
parameters dxlp_hv18_spw=8e-009 * a2p_hv18_spw
parameters dxwp_hv18_spw=1.2e-008 * a3p_hv18_spw
parameters cjdp_hv18_spw=5.95e-04 * (1 + 0.070 * a1p_hv18_spw)
parameters cjswdp_hv18_spw=3.38e-10 * (1 + 0.070 * a1p_hv18_spw)
parameters cjswgdp_hv18_spw=7.97e-10 * (1 + 0.070 * a1p_hv18_spw)
parameters cjsp_hv18_spw=1.31951e-03 * (1 + 0.070 * a1p_hv18_spw)
parameters cjswsp_hv18_spw=7.12297e-11 * (1 + 0.070 * a1p_hv18_spw)
parameters cjswgsp_hv18_spw=1.40158e-10 * (1 + 0.070 * a1p_hv18_spw)
parameters cgdop_hv18_spw=7.73681e-13 * (1 - 0.070 * a4np_hv18_snw_spw)
parameters cgdlp_hv18_spw=1.238e-9 * (1 - 0.070 * a4np_hv18_snw_spw)
parameters cgsop_hv18_spw=2.5255e-11 * (1 - 0.070 * a4np_hv18_snw_spw)
parameters cgslp_hv18_spw=7.2878e-11 * (1 - 0.070 * a4np_hv18_snw_spw)
parameters ddlcp_hv18_spw=7.45e-08
parameters dvthp_hv18_spw= - 0.033 * a1p_hv18_spw
parameters dlvthp_hv18_spw= - 1.3e-008 * a1p_hv18_spw
parameters dwvthp_hv18_spw= - 2.1e-009 * a1p_hv18_spw
parameters dpvthp_hv18_spw= - 3.3e-015 * a1p_hv18_spw
parameters du0p_hv18_spw= - 0.0001 * a1p_hv18_spw
parameters dlu0p_hv18_spw= - 2.2e-010 * a1p_hv18_spw
parameters dwu0p_hv18_spw= - 0.30e-010 * a1p_hv18_spw
parameters dpu0p_hv18_spw=1.5e-017 * a1p_hv18_spw
parameters dnfactorp_hv18_spw=0
parameters dlnfactorp_hv18_spw=0
parameters dwnfactorp_hv18_spw=0
parameters dpnfactorp_hv18_spw=0
parameters dvsatp_hv18_spw=18000 * a1p_hv18_spw
parameters dlvsatp_hv18_spw=0
parameters dwvsatp_hv18_spw=1.6e-2 * a1p_hv18_spw
parameters dpvsatp_hv18_spw=0
parameters dk2p_hv18_spw=0
parameters dlk2p_hv18_spw=0
parameters dwk2p_hv18_spw=0
parameters dpk2p_hv18_spw=0
parameters deta0p_hv18_spw=0
parameters dweta0p_hv18_spw=0
parameters dcitp_hv18_spw= - 3.5e-4 * a1p_hv18_spw
parameters dlcitp_hv18_spw=0
parameters dwcitp_hv18_spw=0
parameters dpcitp_hv18_spw=2e-16 * a1p_hv18_spw
parameters dvoffp_hv18_spw=0
parameters dlvoffp_hv18_spw=0
parameters dwvoffp_hv18_spw=0
parameters dpvoffp_hv18_spw=0
parameters da0p_hv18_spw=0
parameters dla0p_hv18_spw=0
parameters dwa0p_hv18_spw=0
parameters dpa0p_hv18_spw=7e-014 * a1p_hv18_spw * 0
parameters dagsp_hv18_spw=0
parameters dlagsp_hv18_spw=0
parameters dwagsp_hv18_spw= - 2e-008 * a1p_hv18_spw
parameters dpagsp_hv18_spw=4e-013 * a1p_hv18_spw
parameters dkt1p_hv18_spw=0
parameters dlkt1p_hv18_spw=0
parameters dwkt1p_hv18_spw=0
parameters dpkt1p_hv18_spw=0
parameters datp_hv18_spw= - 30000 * a1p_hv18_spw
parameters dlatp_hv18_spw=0
parameters dwatp_hv18_spw= - 5e-2 * a1p_hv18_spw
parameters dpatp_hv18_spw=0
parameters djtsswgdp_hv18_spw= - 4.5e-8 * a1p_hv18_spw
parameters djtsswgsp_hv18_spw=0