//
simulator lang=spectre insensitive=yes
library tsmclib
//   **********************************************
//   *             TSMC SPICE MODEL               *
//   **********************************************
// 
//     PROCESS :  0.040um LOGIC SALICIDE Low-K IMD (Vg=2.5V/Vd=5V) (CLN40LP HVMOS)
//     MODEL   :  BSIM4 ( V4.5 )
//     DOC. NO.:  T-N40-CL-SP-034
//     VERSION :  V1d1_1
//     DATE    :  Nov. 16, 2009
//     SPECTRE VERSION : 7.1.0.048 
// *****************************************************************************
//   Updated History:                                                         
//   *
//      Date    Version                                                       
//   *
//   1. 12/11/08 V1d0_1p1  Newly created Si based HVMOS model                 
//   *
//                         LOD and WPE are not included          
//   2. 05/27/09 V1d0_1    Model copy from V1d0_1p1 (Official release)	       
//   *
//   3. 11/06/09 V1d1_1p1  Update AC model basing on new silicon data    
//   *
//   4. 11/16/09 V1d1_1    Model copy from V1d1_1p1(Official release)    
//   *
// *****************************************************************************
// *****************************************************************************
//                                                                            
//   *
//        THIS MODEL LIB CONTAINS :                                           
//   *
//                                                                            
//   *
//        1.LIB TT_hv25_snw_spw                                               
//   *
//              SS_hv25_snw_spw                                               
//   *
//              FF_hv25_snw_spw                                               
//   *
//              SF_hv25_snw_spw                                               
//   *
//              FS_hv25_snw_spw                                               
//   *
//    ( 2.5V HVMOS devices for standard NW_HVNMOS and PW_HVPMOS with different 
//  *
//      geometry and corner models)                                           
//   *
// 									     *
// *****************************************************************************
// 
//  NOTE:
//   1. All parasitics capacitances are removed from intrinsic model. The model 
//  only
//      covers the intrinsic MOSFET. All parasitic components will be handled 
//  by LPE.
//      For pre-layout simulation, contact-to-poly capacitance can be simulated 
//  by 
//      setting ccoflag_hv25_snw_spw=1.
// 
//   2. Best approximation for gate resistance extraction is 1/3 of Rg, DC gate 
//  
//      resistance. Current LPE tools extract gate resistors from gate edge to 
//  center 
//      of gate. Error of 1/2 Rg methodology is less than 5% when W/L < 30.  It 
//  is 
//      recommended to split wide gate transistor to meet W/L < 30 for high precision 
//  
//      designs. For pre-layout simulation, Rg effect can be simulated by setting 
//  
//      rgflag_hv25_snw_spw=1
// 
// **********************************************************************************
 
// ***********************    FLAG FOR CONTACT-POLY CAPACITANCE    *******************************
// 
//  NOTE: *  1. The default value of ccoflag is 0, which means that the model 
//  will exclude contact-to-poly 
//      capacitance.  LPE tools should extract this capacitance during post-layout 
//  simulation. 
//   2. Users could set ccoflag to 1 for pre-layout simulation where contact-to-poly 
//  capacitance 
//      with maximum contact density is required. 
// 
// ***********************************************************************************************
 
 

section setup_hv25_snw_spw
parameters ccoflag_hv25_snw_spw=0
parameters rgflag_hv25_snw_spw=0
parameters sigma_factor_hv25_snw_spw=1
 
endsection setup_hv25_snw_spw
 
// **************************     LIBRARY OF TYPICAL CASE     ***************************

section tt_hv25_snw_spw
include "cln40lp_hv_2d5_lk_v1d1_1.scs" section=setup_hv25_snw_spw
parameters toxn_hv25_snw=5.7e-09
parameters dxln_hv25_snw=0
parameters dxwn_hv25_snw=0
parameters cjdn_hv25_snw=1.37e-4
parameters cjswdn_hv25_snw=5.26e-10
parameters cjswgdn_hv25_snw=6.43e-10
parameters cjsn_hv25_snw=1.063e-03
parameters cjswsn_hv25_snw=1.280e-10
parameters cjswgsn_hv25_snw=1.560e-10
parameters cgdon_hv25_snw=1e-12
parameters cgdln_hv25_snw=2.63e-9
parameters ddlcn_hv25_snw=2.36e-07
parameters cgson_hv25_snw=1.06035e-12
parameters cgsln_hv25_snw=2.37061e-10
parameters dvthn_hv25_snw=0
parameters dlvthn_hv25_snw=0
parameters dwvthn_hv25_snw=0
parameters dpvthn_hv25_snw=0
parameters du0n_hv25_snw=0
parameters dlu0n_hv25_snw=0
parameters dwu0n_hv25_snw=0
parameters dpu0n_hv25_snw=0
parameters dketan_hv25_snw=0
parameters dlketan_hv25_snw=0
parameters dwketan_hv25_snw=0
parameters dpketan_hv25_snw=0
parameters dnfactorn_hv25_snw=0
parameters dlnfactorn_hv25_snw=0
parameters dwnfactorn_hv25_snw=0
parameters dpnfactorn_hv25_snw=0
parameters dvsatn_hv25_snw=0
parameters dwvsatn_hv25_snw=0
parameters dk2n_hv25_snw=0
parameters dlk2n_hv25_snw=0
parameters dwk2n_hv25_snw=0
parameters dpk2n_hv25_snw=0
parameters deta0n_hv25_snw=0
parameters dweta0n_hv25_snw=0
parameters dagsn_hv25_snw=0
parameters dlagsn_hv25_snw=0
parameters dwagsn_hv25_snw=0
parameters dpagsn_hv25_snw=0
parameters dvoffn_hv25_snw=0
parameters dlvoffn_hv25_snw=0
parameters dwvoffn_hv25_snw=0
parameters dpvoffn_hv25_snw=0
parameters dcitn_hv25_snw=0
parameters dlcitn_hv25_snw=0
parameters dwcitn_hv25_snw=0
parameters dpcitn_hv25_snw=0
parameters duan_hv25_snw=0
parameters dluan_hv25_snw=0
parameters dwuan_hv25_snw=0
parameters dpuan_hv25_snw=0
parameters dubn_hv25_snw=0
parameters dlubn_hv25_snw=0
parameters dwubn_hv25_snw=0
parameters dpubn_hv25_snw=0
parameters djtsswgdn_hv25_snw=0
parameters djtsswgsn_hv25_snw=0
parameters dkt1n_hv25_snw=0
parameters dlkt1n_hv25_snw=0
parameters dwkt1n_hv25_snw=0
parameters dpkt1n_hv25_snw=0
parameters datn_hv25_snw=0
parameters dlatn_hv25_snw=0
parameters dwatn_hv25_snw=0
parameters dpatn_hv25_snw=0
parameters dagidln_hv25_snw=0
parameters dlagidln_hv25_snw=0
parameters dwagidln_hv25_snw=0
parameters dpagidln_hv25_snw=0
parameters dbgidln_hv25_snw=0
parameters dlbgidln_hv25_snw=0
parameters dwbgidln_hv25_snw=0
parameters dpbgidln_hv25_snw=0
parameters dnjtsswgn_hv25_snw=0
parameters ss_flag_hv25_snw_spw=0
parameters ff_flag_hv25_snw_spw=0
parameters sf_flag_hv25_snw_spw=0
parameters fs_flag_hv25_snw_spw=0
parameters cfn_hv25_snw=8.02e-11 + 6.99e-11 * ccoflag_hv25_snw_spw
parameters toxp_hv25_spw=6.13e-09
parameters dxlp_hv25_spw=0
parameters dxwp_hv25_spw=0
parameters cjdp_hv25_spw=5.93e-4
parameters cjswdp_hv25_spw=3.37e-10
parameters cjswgdp_hv25_spw=8.00e-10
parameters cjsp_hv25_spw=1.19000e-03
parameters cjswsp_hv25_spw=1.03000e-10
parameters cjswgsp_hv25_spw=1.09000e-10
parameters cgdop_hv25_spw=1.99e-10
parameters cgdlp_hv25_spw=8.25e-10
parameters ddlcp_hv25_spw=1.193e-07
parameters cgsop_hv25_spw=6.13160e-13
parameters cgslp_hv25_spw=3.34994e-10
parameters dvthp_hv25_spw=0
parameters dlvthp_hv25_spw=0
parameters dwvthp_hv25_spw=0
parameters dpvthp_hv25_spw=0
parameters du0p_hv25_spw=0
parameters dlu0p_hv25_spw=0
parameters dwu0p_hv25_spw=0
parameters dpu0p_hv25_spw=0
parameters dnfactorp_hv25_spw=0
parameters dlnfactorp_hv25_spw=0
parameters dwnfactorp_hv25_spw=0
parameters dpnfactorp_hv25_spw=0
parameters dvsatp_hv25_spw=0
parameters dlvsatp_hv25_spw=0
parameters dwvsatp_hv25_spw=0
parameters dpvsatp_hv25_spw=0
parameters deta0p_hv25_spw=0
parameters dcitp_hv25_spw=0
parameters dlcitp_hv25_spw=0
parameters dwcitp_hv25_spw=0
parameters dpcitp_hv25_spw=0
parameters dvoffp_hv25_spw=0
parameters dlvoffp_hv25_spw=0
parameters dwvoffp_hv25_spw=0
parameters dpvoffp_hv25_spw=0
parameters da0p_hv25_spw=0
parameters dla0p_hv25_spw=0
parameters dwa0p_hv25_spw=0
parameters dpa0p_hv25_spw=0
parameters dagsp_hv25_spw=0
parameters dlagsp_hv25_spw=0
parameters dwagsp_hv25_spw=0
parameters dpagsp_hv25_spw=0
parameters djtsswgdp_hv25_spw=0
parameters djtsswgsp_hv25_spw=0
parameters dkt1p_hv25_spw=0
parameters dlkt1p_hv25_spw=0
parameters dwkt1p_hv25_spw=0
parameters dpkt1p_hv25_spw=0
parameters datp_hv25_spw=0
parameters dlatp_hv25_spw=0
parameters dwatp_hv25_spw=0
parameters dpatp_hv25_spw=0
parameters dagidlp_hv25_spw=0
parameters dlagidlp_hv25_spw=0
parameters dwagidlp_hv25_spw=0
parameters dpagidlp_hv25_spw=0
parameters dbgidlp_hv25_spw=0
parameters dlbgidlp_hv25_spw=0
parameters dwbgidlp_hv25_spw=0
parameters dpbgidlp_hv25_spw=0
parameters dnjtsswgp_hv25_spw=0
parameters cfp_hv25_spw=8.01e-11 + 7.69e-11 * ccoflag_hv25_snw_spw
include "cln40lp_hv_2d5_lk_v1d1_1.scs" section=mos_hv25_snw_spw
 
endsection tt_hv25_snw_spw
 
// **************************     LIBRARY OF SNSP CORNER CASE     ***************************

section ss_hv25_snw_spw
include "cln40lp_hv_2d5_lk_v1d1_1.scs" section=setup_hv25_snw_spw
parameters a1n_hv25_snw= - 1 * sigma_factor_hv25_snw_spw
parameters a1p_hv25_spw= - 1 * sigma_factor_hv25_snw_spw
parameters a2n_hv25_snw= - 1 * sigma_factor_hv25_snw_spw
parameters a2p_hv25_spw= - 1 * sigma_factor_hv25_snw_spw
parameters a3n_hv25_snw=1 * sigma_factor_hv25_snw_spw
parameters a3p_hv25_spw=1 * sigma_factor_hv25_snw_spw
parameters a4np_hv25_snw_spw= - 1 * sigma_factor_hv25_snw_spw
parameters toxn_hv25_snw=5.7e-09 - 3e-010 * a4np_hv25_snw_spw
parameters dxln_hv25_snw= - 1e-008 * a2n_hv25_snw
parameters dxwn_hv25_snw= - 1.2e-008 * a3n_hv25_snw
parameters cjdn_hv25_snw=1.37e-4 * (1 - 0.07 * a1n_hv25_snw)
parameters cjswdn_hv25_snw=5.26e-10 * (1 - 0.07 * a1n_hv25_snw)
parameters cjswgdn_hv25_snw=6.43e-10 * (1 - 0.07 * a1n_hv25_snw)
parameters cjsn_hv25_snw=0.001063 * (1 - 0.07 * a1n_hv25_snw)
parameters cjswsn_hv25_snw=1.28e-10 * (1 - 0.07 * a1n_hv25_snw)
parameters cjswgsn_hv25_snw=1.56e-10 * (1 - 0.07 * a1n_hv25_snw)
parameters cgdon_hv25_snw=1e-12 * (1 + 0.07 * a4np_hv25_snw_spw)
parameters cgdln_hv25_snw=2.63e-9 * (1 + 0.07 * a4np_hv25_snw_spw)
parameters ddlcn_hv25_snw=2.36e-07
parameters cgson_hv25_snw=1.06035e-12 * (1 + 0.07 * a4np_hv25_snw_spw)
parameters cgsln_hv25_snw=2.37061e-10 * (1 + 0.07 * a4np_hv25_snw_spw)
parameters dvthn_hv25_snw= - 0.012 * a1n_hv25_snw
parameters dlvthn_hv25_snw= - 1.15e-008 * a1n_hv25_snw
parameters dwvthn_hv25_snw= - 3e-009 * a1n_hv25_snw
parameters dpvthn_hv25_snw= - 6.5e-015 * a1n_hv25_snw
parameters du0n_hv25_snw=0.0011 * a1n_hv25_snw
parameters dlu0n_hv25_snw=3.2e-009 * a1n_hv25_snw
parameters dwu0n_hv25_snw= - 4.5e-010 * a1n_hv25_snw
parameters dpu0n_hv25_snw= - 4e-016 * a1n_hv25_snw
parameters dketan_hv25_snw=0
parameters dlketan_hv25_snw=0
parameters dwketan_hv25_snw=0
parameters dpketan_hv25_snw=0
parameters dnfactorn_hv25_snw=0
parameters dlnfactorn_hv25_snw=0
parameters dwnfactorn_hv25_snw=0
parameters dpnfactorn_hv25_snw=0
parameters dvsatn_hv25_snw= - 5000 * a1n_hv25_snw
parameters dwvsatn_hv25_snw=0
parameters dk2n_hv25_snw=0
parameters dlk2n_hv25_snw=0
parameters dwk2n_hv25_snw=0
parameters dpk2n_hv25_snw=0
parameters deta0n_hv25_snw=0
parameters dweta0n_hv25_snw=0
parameters dagsn_hv25_snw= - 1 * a1n_hv25_snw
parameters dlagsn_hv25_snw=5.7e-007 * a1n_hv25_snw
parameters dwagsn_hv25_snw=5.7e-007 * a1n_hv25_snw
parameters dpagsn_hv25_snw= - 2.6e-013 * a1n_hv25_snw
parameters dvoffn_hv25_snw=0
parameters dlvoffn_hv25_snw=0
parameters dwvoffn_hv25_snw=0
parameters dpvoffn_hv25_snw=0
parameters dcitn_hv25_snw=0
parameters dlcitn_hv25_snw=0
parameters dwcitn_hv25_snw=0
parameters dpcitn_hv25_snw=0
parameters duan_hv25_snw=0
parameters dluan_hv25_snw=0
parameters dwuan_hv25_snw=0
parameters dpuan_hv25_snw=0
parameters dubn_hv25_snw=0
parameters dlubn_hv25_snw=0
parameters dwubn_hv25_snw=0
parameters dpubn_hv25_snw=0
parameters djtsswgdn_hv25_snw=0
parameters djtsswgsn_hv25_snw=0
parameters dkt1n_hv25_snw=0
parameters dlkt1n_hv25_snw=0
parameters dwkt1n_hv25_snw=0
parameters dpkt1n_hv25_snw=0
parameters datn_hv25_snw= + 10000 * a1n_hv25_snw
parameters dlatn_hv25_snw=0
parameters dwatn_hv25_snw=0
parameters dpatn_hv25_snw=0
parameters dagidln_hv25_snw=0
parameters dlagidln_hv25_snw=0
parameters dwagidln_hv25_snw=0
parameters dpagidln_hv25_snw=0
parameters dbgidln_hv25_snw=0
parameters dlbgidln_hv25_snw= - 60 * a1n_hv25_snw
parameters dwbgidln_hv25_snw= - 150 * a1n_hv25_snw
parameters dpbgidln_hv25_snw=0.0001 * a1n_hv25_snw
parameters dnjtsswgn_hv25_snw= - 5.5 * a1n_hv25_snw
parameters ss_flag_hv25_snw_spw=0
parameters ff_flag_hv25_snw_spw=0
parameters sf_flag_hv25_snw_spw=0
parameters fs_flag_hv25_snw_spw=0
parameters cfn_hv25_snw=8.02e-11 * (1 + 0.07 * a4np_hv25_snw_spw) + 6.99e-11 * ccoflag_hv25_snw_spw
parameters toxp_hv25_spw=6.13e-09 - 3e-010 * a4np_hv25_snw_spw
parameters dxlp_hv25_spw= - 1e-008 * a2p_hv25_spw
parameters dxwp_hv25_spw= - 1.2e-008 * a3p_hv25_spw
parameters cjdp_hv25_spw=5.93e-4 * (1 - 0.07 * a1p_hv25_spw)
parameters cjswdp_hv25_spw=3.37e-10 * (1 - 0.07 * a1p_hv25_spw)
parameters cjswgdp_hv25_spw=8e-10 * (1 - 0.07 * a1p_hv25_spw)
parameters cjsp_hv25_spw=1.19000e-03 * (1 - 0.07 * a1p_hv25_spw)
parameters cjswsp_hv25_spw=1.03000e-10 * (1 - 0.07 * a1p_hv25_spw)
parameters cjswgsp_hv25_spw=1.09000e-10 * (1 - 0.07 * a1p_hv25_spw)
parameters cgdop_hv25_spw=1.99e-10 * (1 + 0.07 * a4np_hv25_snw_spw)
parameters cgdlp_hv25_spw=8.25e-10 * (1 + 0.07 * a4np_hv25_snw_spw)
parameters ddlcp_hv25_spw=1.193e-07
parameters cgsop_hv25_spw=6.13160e-13 * (1 + 0.07 * a4np_hv25_snw_spw)
parameters cgslp_hv25_spw=3.34994e-10 * (1 + 0.07 * a4np_hv25_snw_spw)
parameters dvthp_hv25_spw=0.005 * a1p_hv25_spw
parameters dlvthp_hv25_spw=8.5e-009 * a1p_hv25_spw
parameters dwvthp_hv25_spw=1.5e-009 * a1p_hv25_spw
parameters dpvthp_hv25_spw=3e-015 * a1p_hv25_spw
parameters du0p_hv25_spw= - 5e-005 * a1p_hv25_spw
parameters dlu0p_hv25_spw=3e-010 * a1p_hv25_spw
parameters dwu0p_hv25_spw=1.3e-010 * a1p_hv25_spw
parameters dpu0p_hv25_spw=1e-016 * a1p_hv25_spw
parameters dnfactorp_hv25_spw=0
parameters dlnfactorp_hv25_spw=0
parameters dwnfactorp_hv25_spw=0
parameters dpnfactorp_hv25_spw=0
parameters dvsatp_hv25_spw= - 5000 * a1p_hv25_spw
parameters dlvsatp_hv25_spw=0
parameters dwvsatp_hv25_spw=0
parameters dpvsatp_hv25_spw=0
parameters deta0p_hv25_spw=0
parameters dcitp_hv25_spw=0
parameters dlcitp_hv25_spw=0
parameters dwcitp_hv25_spw=0
parameters dpcitp_hv25_spw=0
parameters dvoffp_hv25_spw=0
parameters dlvoffp_hv25_spw=0
parameters dwvoffp_hv25_spw=0
parameters dpvoffp_hv25_spw=0
parameters da0p_hv25_spw=0
parameters dla0p_hv25_spw=0
parameters dwa0p_hv25_spw=0
parameters dpa0p_hv25_spw=0
parameters dagsp_hv25_spw=0
parameters dlagsp_hv25_spw= - 2.2e-007 * a1p_hv25_spw
parameters dwagsp_hv25_spw=0
parameters dpagsp_hv25_spw=1.4e-013 * a1p_hv25_spw
parameters djtsswgdp_hv25_spw=3.8e-009 * a1p_hv25_spw
parameters djtsswgsp_hv25_spw=0
parameters dkt1p_hv25_spw=0
parameters dlkt1p_hv25_spw=0
parameters dwkt1p_hv25_spw=0
parameters dpkt1p_hv25_spw=0
parameters datp_hv25_spw= + 10000 * a1p_hv25_spw
parameters dlatp_hv25_spw=0
parameters dwatp_hv25_spw=0
parameters dpatp_hv25_spw=0
parameters dagidlp_hv25_spw=0
parameters dlagidlp_hv25_spw=0
parameters dwagidlp_hv25_spw=0
parameters dpagidlp_hv25_spw=0
parameters dbgidlp_hv25_spw= - 300000000 * a1p_hv25_spw
parameters dlbgidlp_hv25_spw=0
parameters dwbgidlp_hv25_spw=0
parameters dpbgidlp_hv25_spw=0
parameters dnjtsswgp_hv25_spw= - 4 * a1p_hv25_spw
parameters cfp_hv25_spw=8.01e-11 * (1 + 0.07 * a4np_hv25_snw_spw) + 7.69e-11 * ccoflag_hv25_snw_spw
include "cln40lp_hv_2d5_lk_v1d1_1.scs" section=mos_hv25_snw_spw
 
endsection ss_hv25_snw_spw
 
// **************************     LIBRARY OF FNFP CORNER CASE     ***************************

section ff_hv25_snw_spw
include "cln40lp_hv_2d5_lk_v1d1_1.scs" section=setup_hv25_snw_spw
parameters a1n_hv25_snw= - 1 * sigma_factor_hv25_snw_spw
parameters a1p_hv25_spw= - 1 * sigma_factor_hv25_snw_spw
parameters a2n_hv25_snw= - 1 * sigma_factor_hv25_snw_spw
parameters a2p_hv25_spw= - 1 * sigma_factor_hv25_snw_spw
parameters a3n_hv25_snw=1 * sigma_factor_hv25_snw_spw
parameters a3p_hv25_spw=1 * sigma_factor_hv25_snw_spw
parameters a4np_hv25_snw_spw= - 1 * sigma_factor_hv25_snw_spw
parameters toxn_hv25_snw=5.7e-09 + 3.0000e-010 * a4np_hv25_snw_spw
parameters dxln_hv25_snw=1e-008 * a2n_hv25_snw
parameters dxwn_hv25_snw=1.2e-008 * a3n_hv25_snw
parameters cjdn_hv25_snw=1.37e-4 * (1 + 0.070 * a1n_hv25_snw)
parameters cjswdn_hv25_snw=5.26e-10 * (1 + 0.070 * a1n_hv25_snw)
parameters cjswgdn_hv25_snw=6.43e-10 * (1 + 0.070 * a1n_hv25_snw)
parameters cjsn_hv25_snw=0.001063 * (1 + 0.070 * a1n_hv25_snw)
parameters cjswsn_hv25_snw=1.28e-10 * (1 + 0.070 * a1n_hv25_snw)
parameters cjswgsn_hv25_snw=1.56e-10 * (1 + 0.070 * a1n_hv25_snw)
parameters cgdon_hv25_snw=1e-12 * (1 - 0.070 * a4np_hv25_snw_spw)
parameters cgdln_hv25_snw=2.63e-9 * (1 - 0.070 * a4np_hv25_snw_spw)
parameters ddlcn_hv25_snw=2.36e-07
parameters cgson_hv25_snw=1.06035e-12 * (1 - 0.070 * a4np_hv25_snw_spw)
parameters cgsln_hv25_snw=2.37061e-10 * (1 - 0.070 * a4np_hv25_snw_spw)
parameters dvthn_hv25_snw=0.012 * a1n_hv25_snw
parameters dlvthn_hv25_snw=1.15e-008 * a1n_hv25_snw
parameters dwvthn_hv25_snw=3e-009 * a1n_hv25_snw
parameters dpvthn_hv25_snw=6.5e-015 * a1n_hv25_snw
parameters du0n_hv25_snw= - 0.0009 * a1n_hv25_snw
parameters dlu0n_hv25_snw= - 3.6e-009 * a1n_hv25_snw
parameters dwu0n_hv25_snw=5.2e-010 * a1n_hv25_snw
parameters dpu0n_hv25_snw=6.1e-016 * a1n_hv25_snw
parameters dketan_hv25_snw=0
parameters dlketan_hv25_snw= - 2e-8 * a1n_hv25_snw
parameters dwketan_hv25_snw=0
parameters dpketan_hv25_snw=0
parameters dnfactorn_hv25_snw=0.1 * a1n_hv25_snw
parameters dlnfactorn_hv25_snw=0
parameters dwnfactorn_hv25_snw=0
parameters dpnfactorn_hv25_snw=0
parameters dvsatn_hv25_snw=5000 * a1n_hv25_snw
parameters dwvsatn_hv25_snw=0
parameters dk2n_hv25_snw=0
parameters dlk2n_hv25_snw=0
parameters dwk2n_hv25_snw=0
parameters dpk2n_hv25_snw=0
parameters deta0n_hv25_snw=0
parameters dweta0n_hv25_snw=0
parameters dagsn_hv25_snw=1 * a1n_hv25_snw
parameters dlagsn_hv25_snw= - 6e-007 * a1n_hv25_snw
parameters dwagsn_hv25_snw= - 6e-007 * a1n_hv25_snw
parameters dpagsn_hv25_snw=2.73e-013 * a1n_hv25_snw
parameters dvoffn_hv25_snw=0
parameters dlvoffn_hv25_snw=0
parameters dwvoffn_hv25_snw=0
parameters dpvoffn_hv25_snw=0
parameters dcitn_hv25_snw=0
parameters dlcitn_hv25_snw=0
parameters dwcitn_hv25_snw=0
parameters dpcitn_hv25_snw=0.2e-16 * a1n_hv25_snw
parameters duan_hv25_snw=0
parameters dluan_hv25_snw=0
parameters dwuan_hv25_snw=0
parameters dpuan_hv25_snw=0
parameters dubn_hv25_snw=0
parameters dlubn_hv25_snw=0
parameters dwubn_hv25_snw=0
parameters dpubn_hv25_snw=0
parameters djtsswgdn_hv25_snw=0
parameters djtsswgsn_hv25_snw=0
parameters dkt1n_hv25_snw=0
parameters dlkt1n_hv25_snw=0
parameters dwkt1n_hv25_snw=0
parameters dpkt1n_hv25_snw=0
parameters datn_hv25_snw= - 10000 * a1n_hv25_snw
parameters dlatn_hv25_snw=0
parameters dwatn_hv25_snw=0
parameters dpatn_hv25_snw=0
parameters dagidln_hv25_snw=0
parameters dlagidln_hv25_snw=0
parameters dwagidln_hv25_snw=0
parameters dpagidln_hv25_snw=0
parameters dbgidln_hv25_snw=0
parameters dlbgidln_hv25_snw=60 * a1n_hv25_snw
parameters dwbgidln_hv25_snw=200 * a1n_hv25_snw
parameters dpbgidln_hv25_snw= - 0.0003 * a1n_hv25_snw
parameters dnjtsswgn_hv25_snw=1.75 * a1n_hv25_snw
parameters ss_flag_hv25_snw_spw=0
parameters ff_flag_hv25_snw_spw=0
parameters sf_flag_hv25_snw_spw=0
parameters fs_flag_hv25_snw_spw=0
parameters cfn_hv25_snw=8.02e-11 * (1 - 0.070 * a4np_hv25_snw_spw) + 6.99e-11 * 
+ ccoflag_hv25_snw_spw
parameters toxp_hv25_spw=6.13e-09 + 3.0000e-010 * a4np_hv25_snw_spw
parameters dxlp_hv25_spw=1e-008 * a2p_hv25_spw
parameters dxwp_hv25_spw=1.2e-008 * a3p_hv25_spw
parameters cjdp_hv25_spw=5.93e-4 * (1 + 0.070 * a1p_hv25_spw)
parameters cjswdp_hv25_spw=3.37e-10 * (1 + 0.070 * a1p_hv25_spw)
parameters cjswgdp_hv25_spw=8e-10 * (1 + 0.070 * a1p_hv25_spw)
parameters cjsp_hv25_spw=1.19000e-03 * (1 + 0.070 * a1p_hv25_spw)
parameters cjswsp_hv25_spw=1.03000e-10 * (1 + 0.070 * a1p_hv25_spw)
parameters cjswgsp_hv25_spw=1.09000e-10 * (1 + 0.070 * a1p_hv25_spw)
parameters cgdop_hv25_spw=1.99e-10 * (1 - 0.070 * a4np_hv25_snw_spw)
parameters cgdlp_hv25_spw=8.25e-10 * (1 - 0.070 * a4np_hv25_snw_spw)
parameters ddlcp_hv25_spw=1.193e-07
parameters cgsop_hv25_spw=6.13160e-13 * (1 - 0.070 * a4np_hv25_snw_spw)
parameters cgslp_hv25_spw=3.34994e-10 * (1 - 0.070 * a4np_hv25_snw_spw)
parameters dvthp_hv25_spw= - 0.005 * a1p_hv25_spw
parameters dlvthp_hv25_spw= - 8.2e-009 * a1p_hv25_spw
parameters dwvthp_hv25_spw= - 1.8e-009 * a1p_hv25_spw
parameters dpvthp_hv25_spw= - 2.8e-015 * a1p_hv25_spw
parameters du0p_hv25_spw=8e-005 * a1p_hv25_spw
parameters dlu0p_hv25_spw= - 2.6e-010 * a1p_hv25_spw
parameters dwu0p_hv25_spw= - 9e-011 * a1p_hv25_spw
parameters dpu0p_hv25_spw= - 9e-017 * a1p_hv25_spw
parameters dnfactorp_hv25_spw=0
parameters dlnfactorp_hv25_spw=0
parameters dwnfactorp_hv25_spw=0
parameters dpnfactorp_hv25_spw=0
parameters dvsatp_hv25_spw=5000 * a1p_hv25_spw
parameters dlvsatp_hv25_spw=0
parameters dwvsatp_hv25_spw=0
parameters dpvsatp_hv25_spw=0
parameters deta0p_hv25_spw=0
parameters dcitp_hv25_spw=0
parameters dlcitp_hv25_spw=0
parameters dwcitp_hv25_spw=0
parameters dpcitp_hv25_spw=0
parameters dvoffp_hv25_spw=0
parameters dlvoffp_hv25_spw=0
parameters dwvoffp_hv25_spw=0
parameters dpvoffp_hv25_spw=0
parameters da0p_hv25_spw=0
parameters dla0p_hv25_spw=0
parameters dwa0p_hv25_spw=0
parameters dpa0p_hv25_spw=0
parameters dagsp_hv25_spw=0
parameters dlagsp_hv25_spw=8e-008 * a1p_hv25_spw
parameters dwagsp_hv25_spw=0
parameters dpagsp_hv25_spw= - 1.2e-013 * a1p_hv25_spw
parameters djtsswgdp_hv25_spw= - 3.8e-009 * a1p_hv25_spw
parameters djtsswgsp_hv25_spw=0
parameters dkt1p_hv25_spw=0
parameters dlkt1p_hv25_spw=0
parameters dwkt1p_hv25_spw=0
parameters dpkt1p_hv25_spw=0
parameters datp_hv25_spw= - 10000 * a1p_hv25_spw
parameters dlatp_hv25_spw=0
parameters dwatp_hv25_spw=0
parameters dpatp_hv25_spw=0
parameters dagidlp_hv25_spw=0
parameters dlagidlp_hv25_spw=0
parameters dwagidlp_hv25_spw=0
parameters dpagidlp_hv25_spw=0
parameters dbgidlp_hv25_spw=350000000 * a1p_hv25_spw
parameters dlbgidlp_hv25_spw=50 * a1p_hv25_spw
parameters dwbgidlp_hv25_spw=0
parameters dpbgidlp_hv25_spw= - 3e-005 * a1p_hv25_spw
parameters dnjtsswgp_hv25_spw=3 * a1p_hv25_spw
parameters cfp_hv25_spw=8.01e-11 * (1 - 0.070 * a4np_hv25_snw_spw) + 7.69e-11 * 
+ ccoflag_hv25_snw_spw
include "cln40lp_hv_2d5_lk_v1d1_1.scs" section=mos_hv25_snw_spw
 
endsection ff_hv25_snw_spw
 
// **************************     LIBRARY OF SNFP CORNER CASE     ***************************

section sf_hv25_snw_spw
include "cln40lp_hv_2d5_lk_v1d1_1.scs" section=setup_hv25_snw_spw
parameters a1n_hv25_snw=0.8 * sigma_factor_hv25_snw_spw
parameters a1p_hv25_spw= - 0.8 * sigma_factor_hv25_snw_spw
parameters a2n_hv25_snw=0 * sigma_factor_hv25_snw_spw
parameters a2p_hv25_spw=0 * sigma_factor_hv25_snw_spw
parameters a3n_hv25_snw= - 1 * sigma_factor_hv25_snw_spw
parameters a3p_hv25_spw=1 * sigma_factor_hv25_snw_spw
parameters a4np_hv25_snw_spw=0 * sigma_factor_hv25_snw_spw
parameters toxn_hv25_snw=5.7e-09 + 3.0000e-010 * a4np_hv25_snw_spw
parameters dxln_hv25_snw=1e-008 * a2n_hv25_snw
parameters dxwn_hv25_snw=1.2e-008 * a3n_hv25_snw
parameters cjdn_hv25_snw=1.37e-4 * (1 + 0.070 * a1n_hv25_snw)
parameters cjswdn_hv25_snw=5.26e-10 * (1 + 0.070 * a1n_hv25_snw)
parameters cjswgdn_hv25_snw=6.43e-10 * (1 + 0.070 * a1n_hv25_snw)
parameters cjsn_hv25_snw=0.001063 * (1 + 0.070 * a1n_hv25_snw)
parameters cjswsn_hv25_snw=1.28e-10 * (1 + 0.070 * a1n_hv25_snw)
parameters cjswgsn_hv25_snw=1.56e-10 * (1 + 0.070 * a1n_hv25_snw)
parameters cgdon_hv25_snw=1e-12 * (1 - 0.070 * a4np_hv25_snw_spw)
parameters cgdln_hv25_snw=2.63e-9 * (1 - 0.070 * a4np_hv25_snw_spw)
parameters ddlcn_hv25_snw=2.36e-07
parameters cgson_hv25_snw=1.06035e-12 * (1 - 0.070 * a4np_hv25_snw_spw)
parameters cgsln_hv25_snw=2.37061e-10 * (1 - 0.070 * a4np_hv25_snw_spw)
parameters dvthn_hv25_snw=0.032 * a1n_hv25_snw
parameters dlvthn_hv25_snw=1.4e-008 * a1n_hv25_snw
parameters dwvthn_hv25_snw=3e-009 * a1n_hv25_snw
parameters dpvthn_hv25_snw=6.5e-015 * a1n_hv25_snw
parameters du0n_hv25_snw= - 0.0015 * a1n_hv25_snw
parameters dlu0n_hv25_snw= - 3.8e-009 * a1n_hv25_snw
parameters dwu0n_hv25_snw=4.5e-010 * a1n_hv25_snw
parameters dpu0n_hv25_snw=6.1e-016 * a1n_hv25_snw
parameters dketan_hv25_snw=0
parameters dlketan_hv25_snw=0
parameters dwketan_hv25_snw=0
parameters dpketan_hv25_snw=0
parameters dnfactorn_hv25_snw=0
parameters dlnfactorn_hv25_snw=0
parameters dwnfactorn_hv25_snw=0
parameters dpnfactorn_hv25_snw=0
parameters dvsatn_hv25_snw=5000 * a1n_hv25_snw
parameters dwvsatn_hv25_snw=0
parameters dk2n_hv25_snw=0
parameters dlk2n_hv25_snw=0
parameters dwk2n_hv25_snw=0
parameters dpk2n_hv25_snw=0
parameters deta0n_hv25_snw=0
parameters dweta0n_hv25_snw=0
parameters dagsn_hv25_snw=1 * a1n_hv25_snw
parameters dlagsn_hv25_snw= - 5.5e-007 * a1n_hv25_snw
parameters dwagsn_hv25_snw= - 5.7e-007 * a1n_hv25_snw
parameters dpagsn_hv25_snw=2.73e-013 * a1n_hv25_snw
parameters dvoffn_hv25_snw=0
parameters dlvoffn_hv25_snw=0
parameters dwvoffn_hv25_snw=0
parameters dpvoffn_hv25_snw=0
parameters dcitn_hv25_snw=0
parameters dlcitn_hv25_snw=0
parameters dwcitn_hv25_snw=0
parameters dpcitn_hv25_snw=0
parameters duan_hv25_snw=0
parameters dluan_hv25_snw=0
parameters dwuan_hv25_snw=0
parameters dpuan_hv25_snw=0
parameters dubn_hv25_snw=0
parameters dlubn_hv25_snw=0
parameters dwubn_hv25_snw=0
parameters dpubn_hv25_snw=0
parameters djtsswgdn_hv25_snw=0
parameters djtsswgsn_hv25_snw=0
parameters dkt1n_hv25_snw=0
parameters dlkt1n_hv25_snw=0
parameters dwkt1n_hv25_snw=0
parameters dpkt1n_hv25_snw=0
parameters datn_hv25_snw= - 10000 * a1n_hv25_snw
parameters dlatn_hv25_snw=0
parameters dwatn_hv25_snw=0
parameters dpatn_hv25_snw=0
parameters dagidln_hv25_snw=0
parameters dlagidln_hv25_snw=0
parameters dwagidln_hv25_snw=0
parameters dpagidln_hv25_snw=0
parameters dbgidln_hv25_snw=0
parameters dlbgidln_hv25_snw=60 * a1n_hv25_snw
parameters dwbgidln_hv25_snw=150 * a1n_hv25_snw
parameters dpbgidln_hv25_snw= - 1e-4 * a1n_hv25_snw
parameters dnjtsswgn_hv25_snw=1.75 * a1n_hv25_snw
parameters ss_flag_hv25_snw_spw=0
parameters ff_flag_hv25_snw_spw=0
parameters sf_flag_hv25_snw_spw=0
parameters fs_flag_hv25_snw_spw=0
parameters cfn_hv25_snw=8.02e-11 * (1 - 0.070 * a4np_hv25_snw_spw) + 6.99e-11 * 
+ ccoflag_hv25_snw_spw
parameters toxp_hv25_spw=6.13e-09 + 3.0000e-010 * a4np_hv25_snw_spw
parameters dxlp_hv25_spw=1e-008 * a2p_hv25_spw
parameters dxwp_hv25_spw=1.2e-008 * a3p_hv25_spw
parameters cjdp_hv25_spw=5.93e-4 * (1 + 0.070 * a1p_hv25_spw)
parameters cjswdp_hv25_spw=3.37e-10 * (1 + 0.070 * a1p_hv25_spw)
parameters cjswgdp_hv25_spw=8e-10 * (1 + 0.070 * a1p_hv25_spw)
parameters cjsp_hv25_spw=1.19000e-03 * (1 + 0.070 * a1p_hv25_spw)
parameters cjswsp_hv25_spw=1.03000e-10 * (1 + 0.070 * a1p_hv25_spw)
parameters cjswgsp_hv25_spw=1.09000e-10 * (1 + 0.070 * a1p_hv25_spw)
parameters cgdop_hv25_spw=1.99e-10 * (1 - 0.070 * a4np_hv25_snw_spw)
parameters cgdlp_hv25_spw=8.25e-10 * (1 - 0.070 * a4np_hv25_snw_spw)
parameters ddlcp_hv25_spw=1.193e-07
parameters cgsop_hv25_spw=6.13160e-13 * (1 - 0.070 * a4np_hv25_snw_spw)
parameters cgslp_hv25_spw=3.34994e-10 * (1 - 0.070 * a4np_hv25_snw_spw)
parameters dvthp_hv25_spw= - 0.035 * a1p_hv25_spw
parameters dlvthp_hv25_spw= - 8.7e-009 * a1p_hv25_spw
parameters dwvthp_hv25_spw= - 1.8e-009 * a1p_hv25_spw
parameters dpvthp_hv25_spw= - 2.8e-015 * a1p_hv25_spw
parameters du0p_hv25_spw= - 2.5e-004 * a1p_hv25_spw
parameters dlu0p_hv25_spw= - 5.8e-010 * a1p_hv25_spw
parameters dwu0p_hv25_spw= - 9e-011 * a1p_hv25_spw
parameters dpu0p_hv25_spw= - 1.5e-016 * a1p_hv25_spw
parameters dnfactorp_hv25_spw=0
parameters dlnfactorp_hv25_spw=0
parameters dwnfactorp_hv25_spw=0
parameters dpnfactorp_hv25_spw=0
parameters dvsatp_hv25_spw=5000 * a1p_hv25_spw
parameters dlvsatp_hv25_spw=0
parameters dwvsatp_hv25_spw=0
parameters dpvsatp_hv25_spw=0
parameters deta0p_hv25_spw=0
parameters dcitp_hv25_spw=0
parameters dlcitp_hv25_spw=0
parameters dwcitp_hv25_spw=0
parameters dpcitp_hv25_spw=0
parameters dvoffp_hv25_spw=0
parameters dlvoffp_hv25_spw=0
parameters dwvoffp_hv25_spw=0
parameters dpvoffp_hv25_spw=0
parameters da0p_hv25_spw=0
parameters dla0p_hv25_spw=0
parameters dwa0p_hv25_spw=0
parameters dpa0p_hv25_spw=0
parameters dagsp_hv25_spw=0
parameters dlagsp_hv25_spw=8e-008 * a1p_hv25_spw
parameters dwagsp_hv25_spw=0
parameters dpagsp_hv25_spw= - 1.2e-013 * a1p_hv25_spw
parameters djtsswgdp_hv25_spw= - 3.8e-009 * a1p_hv25_spw
parameters djtsswgsp_hv25_spw=0
parameters dkt1p_hv25_spw=0
parameters dlkt1p_hv25_spw=0
parameters dwkt1p_hv25_spw=0
parameters dpkt1p_hv25_spw=0
parameters datp_hv25_spw= - 10000 * a1p_hv25_spw
parameters dlatp_hv25_spw=0
parameters dwatp_hv25_spw=0
parameters dpatp_hv25_spw=0
parameters dagidlp_hv25_spw=0
parameters dlagidlp_hv25_spw=0
parameters dwagidlp_hv25_spw=0
parameters dpagidlp_hv25_spw=0
parameters dbgidlp_hv25_spw=350000000 * a1p_hv25_spw
parameters dlbgidlp_hv25_spw=50 * a1p_hv25_spw
parameters dwbgidlp_hv25_spw=0
parameters dpbgidlp_hv25_spw= - 3e-005 * a1p_hv25_spw
parameters dnjtsswgp_hv25_spw=3 * a1p_hv25_spw