.MODEL NCH_RF NMOS ( 
+ TNOM=25.0                 VERSION=3.24
+ TOX=4.08E-09              
+ NCH=3.9000000E17          LLN=-1                    LWN=1.0000000
+ WLN=1.0000000             WWN=-1                    LINT=1.0000000E-08
+ LL=0.00                   LW=0.00                   LWL=0.00
+ WINT=3.0000000E-09        WL=0.00                   WW=0.00
+ WWL=0.00                  MOBMOD=1                  BINUNIT=2
+ XL=-0.02E-6       XW=0.0            DWG=0.00
+ DWB=0.00                  LDIF=9.00E-08             HDIF=2E-07
+ RSH=6.8               RD=0                      RS=0
+ VTH0=0.4751966   LVTH0=5.3743360E-09
+ WVTH0=3.4482360E-10                       PVTH0=4.5089380E-15
+ K1=0.4007356      LK1=4.9634880E-08         WK1=8.8686750E-08
+ PK1=-6.3891820E-15        K2=6.3188600E-02  LK2=-2.3847164E-08
+ WK2=-3.8768180E-08        PK2=5.0552590E-15         K3=0.00
+ DVT0=0.00                 DVT1=0.00                 DVT2=0.00
+ DVT0W=0.00                DVT1W=0.00                DVT2W=0.00
+ NLX=0.00                  W0=0.00                   K3B=0.00
+ VSAT=8.4294280E04                         LVSAT=-2.0140363E-04
+ WVSAT=1.4459029E-03                      PVSAT=1.5350395E-12
+ UA=-9.0172960E-10         LUA=3.5887640E-18         WUA=4.2784730E-16
+ PUA=-4.6390690E-23        UB=2.7527719E-18          LUB=5.9103390E-27
+ WUB=-9.4519130E-25        PUB=-3.5064990E-33        UC=1.2291169E-10
+ LUC=4.3605990E-18         WUC=-6.1268420E-17        PUC=-2.2654354E-24
+ RDSW=1.7000000E02                         PRWB=0.00
+ PRWG=0.00                 WR=1.0000000              U0=4.3840840E-02
+ LU0=1.2758692E-09                          WU0=-4.8608560E-09
+ PU0=-2.4055863E-16                         A0=0.5262308
+ LA0=8.2795080E-08         WA0=1.4537927E-07         PA0=-7.3379640E-14
+ KETA=-4.4118840E-02       LKETA=3.2284670E-09       WKETA=2.2941933E-08
+ PKETA=-2.7027957E-15      A1=0.00                   A2=0.9900000
+ AGS=-2.7693154E-02        LAGS=1.0727657E-09        WAGS=7.7723050E-08
+ PAGS=-1.0838496E-14       B0=0.00                   B1=0.00
+ VOFF=-0.1247105 LVOFF=-1.4487617E-09
+ WVOFF=1.6054964E-09                      PVOFF=-9.7541500E-16
+ NFACTOR=1.0000000                      PNFACTOR=0
+ WNFACTOR=0  LNFACTOR=0  CIT=2.7498236E-04
+ LCIT=1.0350804E-10        WCIT=-3.0914837E-11       PCIT=1.4220811E-17
+ CDSC=0.00                 CDSCB=0.00                CDSCD=0.00
+ ETA0=-2.9405078E-04                       LETA0=1.8126334E-10
+ WETA0=3.0046217E-12                      PETA0=-1.3821218E-18
+ ETAB=1.3878694E-03        LETAB=-6.8441990E-10      WETAB=-3.6866540E-12
+ PETAB=1.6959704E-18       DSUB=0.00                 PCLM=1.1010191
+ LPCLM=3.8489530E-08       WPCLM=6.6560680E-08       PPCLM=4.0427110E-14
+ PDIBLC1=1.0000000E-06     PDIBLC2=-6.1190130E-03    LPDIBLC2=5.0530930E-09
+ WPDIBLC2=1.8349379E-09    PPDIBLC2=-2.2121929E-16   PDIBLCB=1.0000000E-02
+ DROUT=0.00                PSCBE1=4.0000000E08       PSCBE2=1.0000000E-06
+ PVAG=0.00                 DELTA=1.0000000E-02       ALPHA0=0.0
+ ALPHA1=0.448150714        BETA0=11.59263            KT1=-0.2269240
+ LKT1=5.0937890E-09        WKT1=-2.2583577E-09       PKT1=-1.7512235E-15
+ KT2=-2.9338669E-02        LKT2=5.9558730E-10        WKT2=-1.9897783E-09
+ PKT2=7.3825670E-17        AT=2.0000000E04           UTE=-2.1610963
+ LUTE=8.2097990E-08        WUTE=7.8818350E-07        PUTE=-1.1786150E-13
+ UA1=1.2174792E-09         LUA1=9.1298580E-19        WUA1=7.7858620E-18
+ PUA1=-1.0901051E-24       UB1=-3.8124500E-18        LUB1=4.2482470E-25
+ WUB1=2.8560549E-24        PUB1=-4.2389140E-31       UC1=-1.5406690E-10
+ LUC1=3.2328220E-17        WUC1=1.5903152E-16        PUC1=-2.7204607E-23
+ KT1L=0.00                 
+ PRT=0 CJ=0 MJ=0.3595262
+ PB=0.6882682 CJSW=0 MJSW=0.2003879
+ PBSW=0.6882682 CJSWG=0 MJSWG=0.43879
+ PBSWG=0.6882682 TPB=1.554306E-03 TPBSW=1.554306E-03
+ TCJ=1.040287E-03 TCJSW=6.45489E-04 JS=8.38E-06
+ JSW=1.60E-11 NJ=1.0 XTI=3.0
+ CGDO=1.92E-10 CGSO=1.92E-10 CGBO=1.0E-13
+ CAPMOD=3 NQSMOD=0 ELM=0
+ XPART=0 CF=0 TLEV=1
+ TLEVC=1 WWC=-0.0225
+ DLC=2.68E-8 DWC=-2.833E-8 NOFF=2
+ LNOFF=5E-8 ACDE=1 MOIN=10
+ VOFFCV=-0.05 LVOFFCV=1.114E-8 CGSL=1.31E-10
+ CGDL=1.31E-10 WCF=2.82E-18 NOIMOD=2
+ NOIA=2.0E+19 NOIB=1.2E4 NOIC=2.5E-13
+ EM=3.0E+07 EF=0.874
+ MINR=1E-60 IMAX=0.01 IMELT=0.01 )
.MODEL PCH_RF PMOS  (
+ TNOM=25.0                 VERSION=3.24
+ TOX=4.08E-09              TOXM=4.08E-09            
+ NCH=3.9000000E17          LLN=-1                    LWN=1.0000000
+ WLN=1.0000000             WWN=-1.0000000            LINT=1.4999999E-08
+ LL=0.00                   LW=0.00                   LWL=0.00
+ WINT=5.0000000E-09        WL=0.00                   WW=0.00
+ WWL=0.00                  MOBMOD=1                  BINUNIT=2
+ XL=-0.02E-6       XW=0.0            DWG=0.00
+ DWB=0.00                  LDIF=9.00E-08             HDIF=2E-07
+ RSH=7.2               RD=0                      RS=0
+ VTH0=-0.4492160  LVTH0=-8.1280260E-09
+ WVTH0=9.1421640E-09                       PVTH0=-1.1241356E-15
+ K1=0.5203763              LK1=1.8548040E-08         WK1=1.1998529E-07
+ PK1=-1.7383759E-14        K2=4.1939260E-02  LK2=-6.6254260E-09
+ WK2=-4.4246340E-08        PK2=7.4846270E-15         K3=0.00
+ DVT0=0.00                 DVT1=0.00                 DVT2=0.00
+ DVT0W=0.00                DVT1W=0.00                DVT2W=0.00
+ NLX=0.00                  W0=0.00                   K3B=0.00
+ VSAT=1.3081252E05                         WVSAT=0
+ LVSAT=-3.6562710E-04      UA=9.3578630E-10          LUA=-1.7598350E-16
+ WUA=-6.2823680E-16        PUA=1.5976873E-22         UB=5.0912570E-19
+ LUB=1.3507784E-25         WUB=3.0629255E-25         PUB=-1.3085017E-31
+ UC=-1.5731644E-10         LUC=1.9437196E-17         WUC=1.4561782E-17
+ PUC=-9.3561970E-24        RDSW=5.3000000E02         PRWB=0.00
+ PRWG=0.00                 WR=1.0000000              U0=9.7957610E-03
+ LU0=-1.2475933E-10                         WU0=-2.5725782E-09
+ PU0=2.5785697E-16                          A0=1.2640158
+ LA0=5.3236360E-09         WA0=-4.0712480E-07        PA0=1.0862038E-13
+ KETA=1.4996022E-02        LKETA=-5.8725920E-10      WKETA=8.7244130E-09
+ PKETA=-2.4325694E-15      A1=0.00                   A2=0.4000000
+ AGS=1.9847063E-02         LAGS=6.8821010E-11        WAGS=1.5278273E-09
+ PAGS=-6.8752220E-16       B0=0.00                   B1=0.00
+ VOFF=-0.1308021 LVOFF=1.6353495E-10
+ WVOFF=5.3724310E-09                      PVOFF=-1.9905158E-15
+ NFACTOR=1.0000000                      PNFACTOR=0
+ WNFACTOR=0  LNFACTOR=0  CIT=-6.0918400E-05
+ LCIT=1.1752459E-10        WCIT=2.0354016E-10        PCIT=-7.9076310E-17
+ CDSC=0.00                 CDSCB=0.00                CDSCD=-8.2898130E-05
+ LCDSCD=3.7304140E-11      WCDSCD=1.6464351E-11      PCDSCD=-7.4089540E-18
+ ETA0=-4.6875020E-04                       PETA0=0
+ WETA0=0        LETA0=2.5593752E-10
+ ETAB=1.1323938E-03        LETAB=-5.5457720E-10      WETAB=-5.4801690E-10
+ PETAB=2.4660761E-16       DSUB=0.00                 PCLM=0.9107697
+ LPCLM=4.0153610E-08       WPCLM=-5.4322380E-09      PPCLM=2.4445072E-15
+ PDIBLC1=1.0000000E-06     PDIBLC2=7.9878660E-03     LPDIBLC2=9.0546000E-10
+ WPDIBLC2=-1.9097854E-10   PPDIBLC2=8.5940170E-17    PDIBLCB=1.0000000E-02
+ DROUT=0.00                PSCBE1=3.5000000E08       PSCBE2=5.0000000E-07
+ PVAG=0.00                 DELTA=1.0000000E-02       ALPHA0=0.00
+ ALPHA1=6.8730453846       BETA0=22.67827            KT1=-0.2367561
+ LKT1=-2.4825255E-09       WKT1=1.8848993E-08        PKT1=-1.8229216E-15
+ KT2=-2.5532207E-02        LKT2=-1.0989117E-10       WKT2=6.6289560E-09
+ PKT2=-1.2254391E-15       AT=1.0000000E04           UTE=-0.7199521
+ LUTE=6.2052350E-10        WUTE=1.0915658E-07        PUTE=9.7984170E-15
+ UA1=1.2240000E-09         UB1=-1.3554493E-18        LUB1=2.6058948E-26
+ WUB1=-2.2890885E-25       PUB1=2.7781507E-32        UC1=7.0516520E-11
+ LUC1=-7.6589150E-18       WUC1=-3.5766990E-17       PUC1=8.1134340E-24
+ KT1L=0.00 PRT=0 CJ=0
+ MJ=0.4476 PB=0.895226 CJSW=0
+ MJSW=0.3683619 PBSW=0.895226 CJSWG=0
+ MJSWG=0.3683619 PBSWG=0.895226 TPB=1.572025E-03
+ TPBSW=1.572025E-03 TCJ=9.739001E-04 TCJSW=4.130718E-04
+ JS=4.92E-06 JSW=9.00E-10 NJ=1.0
+ XTI=3.0 CGDO=1.748E-10 CGSO=1.748E-10
+ CGBO=1.0E-13 CAPMOD=3 NQSMOD=0
+ ELM=0 XPART=0 CF=0
+ TLEV=1 TLEVC=1
+ WWC=-0.015 DLC=4.063E-8 DWC=-3.2E-8
+ NOFF=1.515 LNOFF=1E-7 ACDE=0.9
+ MOIN=10 VOFFCV=-0.06 LVOFFCV=1.0E-8
+ CGSL=2.62E-10 CGDL=2.62E-10 WCF=3.0E-17
+ NOIMOD=2 NOIA=9.5E+18 NOIB=1.0E5
+ NOIC=1.4E-12 EM=3.0E+07 EF=1.064
+ MINR=1E-60 IMAX=0.01 IMELT=0.01 )  

