//
//  **********************************************
simulator lang=spectre
// **********************************************
// *             TSMC RF SPICE MODEL            *
// **********************************************
// This model has been modified for RF purppose.
//  
//     PROCESS :  0.18um Mixed-Signal SALICIDE(1P6M+, 1.8V/3.3V)
//     MODEL   :  BSIM3 ( V3.24 )
//     DOC. NO.:  T-018-MM-SP-001 
//     VERSION :  1.3 
//     DATE    :  Aug. 19, 2004
//    SPECTRE VERSION : 50 MSR
//
//  *****************************************************************************
//                                                                              
// *
//   THIS MODEL LIB CONTAINS RF MODEL and BASEBAND model :                      
// *
//                                                                              
// *
//    A. RF model contains:                                                     
// *
//                                                                              
// *                    
//        1. 1.8V nominal Vt N/PMOS corner                                      
// *
//                                                                              
// *  
//           a.LIB TT_RFMOS:Typical RF model                                    
// *
//                                                                              
// *  
//           b.LIB FF_RFMOS:Fast N Fast P corner RF model                       
// *
//                                                                              
// *  
//           c.LIB SS_RFMOS:Slow N Slow P corner RF model                       
// *
//                                                                              
// *  
//           d.LIB SF_RFMOS:Slow N Fast P corner RF model                       
// *
//                                                                              
// *  
//           e.LIB FS_RFMOS:Fast N Slow P corner RF model                       
// *
//                                                                              
// *  
//           f.LIB MC_RFMOS:Monte-Carlo RF statistical model                    
// *
//                                                                              
// *  
//        2. 3.3V nominal Vt N/PMOS corner                                      
// *
//                                                                              
// *   
//           a.LIB TT_RFMOS33:Typical RF model                                  
// *
//                                                                              
// *  
//           b.LIB FF_RFMOS33:Fast N Fast P corner RF model                     
// *
//                                                                              
// *  
//           c.LIB SS_RFMOS33:Slow N Slow P corner RF model                     
// *
//                                                                              
// *  
//           d.LIB SF_RFMOS33:Slow N Fast P corner RF model                     
// *
//                                                                              
// *  
//           e.LIB FS_RFMOS33:Fast N Slow P corner RF model                     
// *
//                                                                              
// *
//           f.LIB MC_RFMOS33:Monte-Carlo RF statistical model                  
// *
//                                                                              
// *
//        3. MIM capacitor corner model                                         
// *
//                                                                              
// *  
//           a.LIB TT_rfMIM:Typical model                                       
// *
//                                                                              
// *
//           b.LIB FF_rfMIM:Fast corner model                                   
// *
//                                                                              
// *
//           c.LIB SS_rfMIM:Slow corner model                                   
// *
//                                                                              
// *
//                                                                              
// *
//        4. Inductor corner model                                              
// *
//                                                                              
// *  
//           a.LIB TT_rfIND:Typical model                                       
// *
//                                                                              
// *
//           b.LIB FF_rfIND:Fast corner model                                   
// *
//                                                                              
// *
//           c.LIB SS_rfIND:Slow corner model                                   
// *
//                                                                              
// *
//                                                                              
// *
//        5. 1.8V/3.3V MOS varactor corner model                                
// *
//                                                                              
// * 
//           a.LIB TT_rfMVAR:Typical model                                      
// *
//                                                                              
// *
//           b.LIB FF_rfMVAR:Fast corner model                                  
// *
//                                                                              
// *
//           c.LIB SS_rfMVAR:Slow corner model                                  
// *
//                                                                              
// *
//                                                                              
// *
//        6. P+/NW Junction varactor corner model                               
// *
//                                                                              
// * 
//           a.LIB TT_rfJVAR:Typical model                                      
// *
//                                                                              
// *
//           b.LIB FF_rfJVAR:Fast corner model                                  
// *
//                                                                              
// *
//           c.LIB SS_rfJVAR:Slow corner model                                  
// *
//                                                                              
// *
//                                                                              
// *
//        7. Resistor corner model                                              
// *
//                                                                              
// *
//           a. Salicided poly resistor                                         
// *
//                                                                              
// * 
//              (a).LIB TT_rfRES_SA:Typical model                               
// *
//                                                                              
// *
//              (b).LIB FF_rfRES_SA:Fast corner model                           
// *
//                                                                              
// *
//              (c).LIB SS_rfRES_SA:Slow corner model                           
// *
//                                                                              
// *
//           b. Non-salicided poly resistor                                     
// *
//                                                                              
// * 
//              (a).LIB TT_rfRES_RPO:Typical model                              
// *
//                                                                              
// *
//              (b).LIB FF_rfRES_RPO:Fast corner model                          
// *
//                                                                              
// *
//              (c).LIB SS_rfRES_RPO:Slow corner model                          
// *
//                                                                              
// *
//           c. HRI P- poly resistor                                            
// *
//                                                                              
// * 
//              (a).LIB TT_rfRES_HRI:Typical model                              
// *
//                                                                              
// *
//              (b).LIB FF_rfRES_HRI:Fast corner model                          
// *
//                                                                              
// *
//              (c).LIB SS_rfRES_HRI:Slow corner model                          
// *
//                                                                              
// *
//        8. Low capasitance ESD corner model                               
// *
//                                                                              
// * 
//           a.LIB TT_rfESD:Typical model                                      
// *
//                                                                              
// *
//           b.LIB FF_rfESD:Fast corner model                                  
// *
//                                                                              
// *
//           c.LIB SS_rfESD:Slow corner model                                  
// *
// *
//                                                                              
// *
//                                                                              
// *
//    B. BASEBAND model contains:                                               
// * 
//                                                                              
// *
//        1.LIB TT                                                              
// *
//              SS                                                              
// *
//              FF                                                              
// *
//              SF                                                              
// *
//              FS                                                              
// *
//              MC : for Monte-Carlo statistical model                          
// *
//          Model name    length range         width range     unit             
// *
//                        low     high         low    high                      
// *
//           ----------------------------------------------------------         
// *
//             nch        0.18  20.0           0.22    900      um              
// *
//           ----------------------------------------------------------         
// *
//             pch        0.18  20.0           0.22    900      um              
// *
//           ----------------------------------------------------------         
// *
//         ( 1.8V Normal devices with different geometric and corner models)    
// *
//                                                                              
// *
//        2.LIB TT_3V                                                           
// *
//              SS_3V                                                           
// *
//              FF_3V                                                           
// *
//              SF_3V                                                           
// *
//              FS_3V                                                           
// *
//              MC_3V : for Monte-Carlo statistical model                       
// *
//          Model name    length range         width range     unit             
// *
//                        low     high         low    high                      
// * 
//           ----------------------------------------------------------         
// *
//             nch3       0.35  20.0           0.22    900      um              
// *
//             pch3       0.30  20.0           0.22    900      um              
// *
//           ----------------------------------------------------------         
// *
//         ( 3.3V normal devices  with different                                
// *
//           geometric and corner models)                                       
// *
//                                                                              
// *
//        3.LIB TT_NA                                                           
// *
//              SS_NA                                                           
// *
//              FF_NA                                                           
// *
//              SF_NA                                                           
// *
//              FS_NA                                                           
// *
//          Model name    length range         width range     unit             
// *
//                        low     high         low    high                      
// *
//           ----------------------------------------------------------         
// *
//             nanch      0.5   20.0           0.22    100      um              
// *
//           ----------------------------------------------------------         
// *
//         ( 1.8V native NMOS with different geometric and corner models)       
// *
//                                                                              
// *
//        4.LIB TT_3VNA                                                         
// *
//              SS_3VNA                                                         
// *
//              FF_3VNA                                                         
// *
//              SF_3VNA                                                         
// *
//              FS_3VNA                                                         
// *
//          Model name    length range         width range     unit             
// *
//                        low     high         low    high                      
// *
//           ----------------------------------------------------------         
// *
//             nanch3     1.2   20.0           0.22    100      um              
// *
//           ----------------------------------------------------------         
// *
//         ( 3.3V native NMOS with different geometric and corner models)       
// *
//                                                                              
// *
//        5.LIB TT_M                                                            
// *
//              SS_M                                                            
// *
//              FF_M                                                            
// *
//              SF_M                                                            
// *
//              FS_M                                                            
// *
//          Model name    length range         width range     unit             
// *
//                        low     high         low    high                      
// *
//           ----------------------------------------------------------         
// *
//             mench      0.30  10.0           0.22    100      um              
// *
//             mepch      0.25  10.0           0.22    100      um              
// *
//           ----------------------------------------------------------         
// *
//         ( 1.8V Medium Vt devices with different geometric and corner models) 
// *
//                                                                              
// *
//        6.LIB TT_3M                                                           
// *
//              SS_3M                                                           
// *
//              FF_3M                                                           
// *
//              SF_3M                                                           
// *
//              FS_3M                                                           
// *
//          Model name    length range         width range     unit             
// *
//                        low     high         low    high                      
// *
//           ----------------------------------------------------------         
// *
//             mench3     0.6   10.0           0.22    100      um              
// *
//           ----------------------------------------------------------         
// *
//         ( 3.3V Medium Vt NMOS with different geometric and corner models)    
// *
//                                                                              
// *
//        7.LIB TT_BIP                                                          
// *
//              SS_BIP                                                          
// *
//              FF_BIP                                                          
// *
//             Model name      emitter area      base area         unit         
// *
//           ------------------------------------------------------------       
// *
//               pnp10            10x10            16x16           um^2         
// *
//               pnp5              5x5             11x11           um^2         
// *
//               pnp2              2x2              8x8            um^2         
// *
//               npn10            10x10            16x16           um^2         
// *
//               npn5              5x5             11x11           um^2         
// *
//               npn2              2x2              8x8            um^2         
// *
//           ------------------------------------------------------------       
// *
//         ( 1.8V P+/NW/PSUB 10x10, 5x5 and 2x2 vertical PNP bipolar and        
// *
//                N+/PW/DNW  10x10, 5x5  and 2x2 vertical NPN bipolar )         
// *
//                                                                              
// *
//        8.LIB TT_BIP3                                                         
// *
//              SS_BIP3                                                         
// *
//              FF_BIP3                                                         
// *
//             Model name      emitter area      base area         unit         
// *
//           ------------------------------------------------------------       
// *
//               pnp10_3          10x10            16x16           um^2         
// *
//               pnp5_3            5x5             11x11           um^2         
// *
//               pnp2_3            2x2              8x8            um^2         
// *
//           ------------------------------------------------------------       
// *
//         ( 3.3V P+/NW/PSUB 10x10, 5x5 and 2x2 vertical PNP bipolar )          
// *
//                                                                              
// *
//        9.LIB DIO                                                             
// *
//         ( 1.8V P+/NW , N+/PW & NW/PSUB diode )                               
// *
//                                                                              
// *
//       10.LIB DIO3                                                            
// *
//         ( 3.3V P+/NW , N+/PW & NW/PSUB diode )                               
// *
//                                                                              
// *
//       11.LIB DIO_DNW                                                         
// *
//         ( DNWPSUB & PWDNW diode )                                            
// *
//                                                                              
// *
//       12.LIB RES                                                             
// *
//          (resist model)                                                      
// *
//  Model name      structure                                                   
// *
//  -----------------------------------------                                   
// *
//   rnod         N+diff w/i silicide W>2um                                     
// *
//   rnodw        N+diff w/i silicide 0.22um<W<2um                              
// *
//   rpod         P+diff w/i silicide W>2um                                     
// *
//   rpodw        P+diff w/i silicide 0.22um<W<2um                              
// *
//   rnodrpo      N+diff w/o silicide 2um<=W                                    
// *
//   rpodrpo      P+diff w/o silicide 2um<=W                                    
// *
//   rnwod        NW diff(under OD)                                             
// *
//   rnwsti       NW diff(under STI)                                            
// *
//   rnpo1        N+Poly w/i silicide W>2um                                     
// *
//   rnpow        N+Poly w/i silicide 0.18um<W<2um                              
// *
//   rppo1        P+Poly w/i silicide W>2um                                     
// *
//   rppow        P+Poly w/i silicide 0.18um<W<2um                              
// *
//   rnpo1rpo     N+Poly w/o silicide 2um<W                                     
// *
//   rppo1rpo     P+Poly w/o silicide 2um<W                                     
// *
//   rm1          Metal 1 with W/S=0.23/0.23                                    
// *
//   rm2~5        Metal 2 to 5 with W/S=0.28/0.28                               
// *
//   rm6          Metal 6 with W/S=0.44/0.46                                    
// *
//   rppolyhri    P-Poly w/o silicide 2um<W                                     
// *
//   rnpo1_dis    Distribute N+Poly w/i silicide W>2um                                     
// *
//   rnpow_dis    Distribute N+Poly w/i silicide 0.18um<W<2um                              
// *
//   rppo1_dis    Distribute P+Poly w/i silicide W>2um                                     
// *
//   rppow_dis    Distribute P+Poly w/i silicide 0.18um<W<2um                              
// *
//   rnpo1rpo_dis Distribute N+Poly w/o silicide 2um<W                                     
// *
//   rppo1rpo_dis Distribute P+Poly w/o silicide 2um<W                                                                        
// *
//   rppolyhri_dis Distribute P-Poly w/o silicide 2um<W                                     

// *
//                                                                              
// * 
//       13.TT_MiM                                                             
//          FF_MiM 
//          SS_MiM  
// *
//         ( MiM Capacitance model )                                            
// *
//       14.TT_BBMVAR                                                             
//          FF_BBMVAR
//          SS_BBMVAR
// *
//         ( MOS Varactor model )                                            
// *
//                                                                              
// *
//  ***************************************************************************** 
//                                                                             *
//  *****************************************************************************
// 
//  1)To use RF models directly by programming in this style: 
//       
//      .lib 'lib_path/lib_name' xx_rfyyy          (xx represents TT, FF or SS)
//      .lib 'lib_path/lib_name' xx_rfyyy          (yyy represents MOS, BJT, MIM,
//      .lib 'lib_path/lib_name' xx_rfyyy           IND, MVAR, JVAR, RES_SA, 
//                    .                             RES_RPO and RES_HRI) 
//                    .  
//                    .   
// 
//   EX:  .lib '/home/user/tsmc/LOGIC/rf018.l' TT_rfMOS
//        .lib '/home/user/tsmc/LOGIC/rf018.l' FF_rfMIM
//        .lib '/home/user/tsmc/LOGIC/rf018.l' SS_rfIND
//        .lib '/home/user/tsmc/LOGIC/rf018.l' TT_rfRES_SA
//   
//   for typical MOS, fast MIM, slow inductor and typical salicided resistor model
//       
//  2)To use baseand models directly by programming in this style:              
//  
//                                                                             
//      .lib 'lib_path/lib_name' model_name                                     
//                                                                            *
//                                                                             
//     EX: .lib '/home/user/tsmc/LOGIC/rf018.l' TT                             
//         for typical 1.8V N,PMOS                                             
//         .lib '/home/user/tsmc/LOGIC/rf018.l' TT_3V                          
//         for typical 3.3V N,PMOS                                             
//   note:                                                                     
//       corner_name                                                           
//        TT : typical model for 1.8V devices                                  
//        SS : Slow NMOS Slow PMOS model for 1.8V devices                      
//        FF : Fast NMOS Fast PMOS model for 1.8V devices                      
//        SF : Slow NMOS Fast PMOS model for 1.8V devices                      
//        FS : Fast NMOS Slow PMOS model for 1.8V devices
//        MC : Statistical model for 1.8V devices                      
//                                                                             
//        TT_3V : typical model for 3.3V devices                               
//        SS_3V : Slow NMOS Slow PMOS model for 3.3V devices                   
//        FF_3V : Fast NMOS Fast PMOS model for 3.3V devices                   
//        SF_3V : Slow NMOS Fast PMOS model for 3.3V devices                   
//        FS_3V : Fast NMOS Slow PMOS model for 3.3V devices
//        MC_3V : Statistical model for 3.3V devices                    
//                                                                             
//        TT_NA : typical model for 1.8V native NMOS                           
//        SS_NA : Slow NMOS for 1.8V native NMOS                               
//        FF_NA : Fast NMOS for 1.8V native NMOS                               
//        SF_NA : Slow NMOS for 1.8V native NMOS                               
//        FS_NA : Fast NMOS for 1.8V native NMOS                               
//                                                                             
//        TT_3VNA : typical model for 3.3V native NMOS                         
//        SS_3VNA : Slow NMOS for 3.3V native NMOS                             
//        FF_3VNA : Fast NMOS for 3.3V native NMOS                             
//        SF_3VNA : Slow NMOS for 3.3V native NMOS                             
//        FS_3VNA : Fast NMOS for 3.3V native NMOS                             
//                                                                             
//  3)HDIF depends on your layout poly spacer to contact center distance.      
//    The value listed here is TSMC minimum-rule value. You can change it   
//    according to your layout.                                                
//       
// 
//
// 
//  ******************************************************
//  *******    1.8V N/PMOS Corner Parameters   ***********
//  ******************************************************
 
library tsmclib
section tt_rfmos
 
parameters a1n_rf=0
parameters a1p_rf=0
parameters a2np_rf=0
parameters a3np_rf=0
parameters a4np_rf=0
parameters vthnmis_rf=0
parameters dlnmis_rf=0
parameters dwnmis_rf=0
parameters toxnmis_rf=0
parameters vthpmis_rf=0
parameters dlpmis_rf=0
parameters dwpmis_rf=0
parameters toxpmis_rf=0
parameters fac_n_rf=0.3766 * 2.4
parameters fac_p_rf=0.3766 * 2.1
parameters du0n_rf=a1n_rf * fac_n_rf * ( - 0.2e-2)
parameters dlu0n_rf=a1n_rf * fac_n_rf * ( - 0.5e-9)
parameters dwu0n_rf=a1n_rf * fac_n_rf * ( - 0.00e-9)
parameters dpu0n_rf=a1n_rf * fac_n_rf * ( - 0.0e-16)
parameters dvthn_rf=a1n_rf * fac_n_rf * 0.0205
parameters dlvthn_rf=a1n_rf * fac_n_rf * 2.9e-9
parameters dwvthn_rf=a1n_rf * fac_n_rf * 6.60e-9
parameters dpvthn_rf=a1n_rf * fac_n_rf * 3.0e-15
parameters toxn_rf=4.08e-09 + a4np_rf * fac_n_rf * 1.33e-10 * 0.5
parameters dxln_rf=a2np_rf * fac_n_rf * 1.33e-8 * 0.5
parameters dxwn_rf=a3np_rf * fac_n_rf * 2.2e-8 * 0.5
parameters dk2n_rf=a1n_rf * fac_n_rf * 0.008
parameters dlk2n_rf=a1n_rf * fac_n_rf * 0.4e-8
parameters dvsatn_rf= - a1n_rf * fac_n_rf * 0.4e4
parameters dwvsatn_rf= - a1n_rf * fac_n_rf * 0.0e-3
parameters deta0n_rf=0.0 * a1n_rf * fac_n_rf
parameters dleta0n_rf= - 0.35e-9 * 0.5 * (a1n_rf * fac_n_rf - sqrt(a1n_rf * fac_n_rf 
+ * a1n_rf * fac_n_rf + 1e-8))
parameters dweta0n_rf=0
parameters dpeta0n_rf= - 1.5e-16 * 0.5 * (a1n_rf * fac_n_rf - sqrt(a1n_rf * fac_n_rf 
+ * a1n_rf * fac_n_rf + 1e-8))
parameters dnfactorn_rf=a1n_rf * fac_n_rf * 0
parameters dlnfactorn_rf=a1n_rf * fac_n_rf * 5e-8
parameters dwnfactorn_rf=a1n_rf * fac_n_rf * 0
parameters dpnfactorn_rf=a1n_rf * fac_n_rf * 0.0e-15
parameters dvoffn_rf= - a1n_rf * fac_n_rf * 0.003
parameters dlvoffn_rf= - a1n_rf * fac_n_rf * 1.0e-9
parameters dwvoffn_rf= - a1n_rf * fac_n_rf * 0.7e-9
parameters dpvoffn_rf= - a1n_rf * fac_n_rf * 1.0e-15
parameters du0p_rf=a1p_rf * fac_p_rf * ( - 0.007e-2)
parameters dlu0p_rf=a1p_rf * fac_p_rf * ( - 0.1e-9)
parameters dwu0p_rf=a1p_rf * fac_p_rf * ( - 0.025e-9)
parameters dpu0p_rf=a1p_rf * fac_p_rf * ( - 0.0e-16)
parameters dvthp_rf=a1p_rf * fac_p_rf * ( - 0.030)
parameters dlvthp_rf=a1p_rf * fac_p_rf * ( - 5.00e-9)